  
       XFOIL         Version 6.94
  
 Calculated polar for: 1080                                            
  
 1 1 Reynolds number fixed          Mach number fixed         
  
 xtrf =   1.000 (top)        1.000 (bottom)  
 Mach =   0.000     Re =     2.000 e 6     Ncrit =   9.000
  
  alpha     CL        CD       CDp       CM    Top_Xtr Bot_Xtr
 ------- -------- --------- --------- -------- ------- -------
   5.000   1.5059   0.00782   0.00368  -0.2052  0.6056  0.5956
   5.005   1.5072   0.00783   0.00369  -0.2054  0.6058  0.5956
   5.010   1.5072   0.00783   0.00369  -0.2053  0.6057  0.5957
   5.015   1.5059   0.00781   0.00367  -0.2049  0.6051  0.5956
   5.020   1.5080   0.00783   0.00369  -0.2052  0.6056  0.5957
   5.025   1.5077   0.00782   0.00368  -0.2051  0.6053  0.5958
   5.030   1.5082   0.00782   0.00368  -0.2051  0.6053  0.5959
   5.035   1.5091   0.00782   0.00369  -0.2052  0.6054  0.5959
   5.040   1.5093   0.00782   0.00369  -0.2051  0.6053  0.5959
   5.045   1.5107   0.00783   0.00370  -0.2053  0.6056  0.5960
   5.050   1.5073   0.00778   0.00365  -0.2044  0.6040  0.5960
   5.055   1.5107   0.00782   0.00369  -0.2051  0.6052  0.5961
   5.060   1.5112   0.00782   0.00369  -0.2050  0.6052  0.5961
   5.065   1.5116   0.00782   0.00369  -0.2050  0.6052  0.5962
   5.070   1.5125   0.00783   0.00370  -0.2051  0.6053  0.5962
   5.075   1.5126   0.00782   0.00370  -0.2050  0.6051  0.5963
   5.080   1.5135   0.00783   0.00370  -0.2051  0.6052  0.5963
   5.085   1.5130   0.00782   0.00369  -0.2049  0.6049  0.5963
   5.090   1.5137   0.00782   0.00370  -0.2050  0.6050  0.5964
   5.095   1.5149   0.00783   0.00371  -0.2051  0.6052  0.5964
   5.100   1.5128   0.00780   0.00368  -0.2045  0.6041  0.5965
   5.105   1.5143   0.00781   0.00369  -0.2048  0.6046  0.5965
   5.110   1.5158   0.00783   0.00371  -0.2050  0.6049  0.5966
   5.115   1.5153   0.00781   0.00370  -0.2048  0.6045  0.5967
   5.120   1.5146   0.00780   0.00368  -0.2045  0.6039  0.5967
   5.125   1.5120   0.00775   0.00363  -0.2038  0.6020  0.5967
   5.130   1.5170   0.00782   0.00370  -0.2048  0.6045  0.5968
   5.135   1.5176   0.00782   0.00371  -0.2048  0.6045  0.5968
   5.140   1.5178   0.00782   0.00370  -0.2047  0.6044  0.5969
   5.145   1.5187   0.00782   0.00371  -0.2048  0.6046  0.5969
   5.150   1.5170   0.00779   0.00368  -0.2043  0.6035  0.5970
