  
       XFOIL         Version 6.94
  
 Calculated polar for: 1080                                            
  
 1 1 Reynolds number fixed          Mach number fixed         
  
 xtrf =   1.000 (top)        1.000 (bottom)  
 Mach =   0.000     Re =     2.000 e 6     Ncrit =   9.000
  
  alpha     CL        CD       CDp       CM    Top_Xtr Bot_Xtr
 ------- -------- --------- --------- -------- ------- -------
   6.000   1.5766   0.00828   0.00423  -0.1990  0.5988  0.6020
   6.010   1.5775   0.00828   0.00424  -0.1990  0.5987  0.6021
   6.020   1.5781   0.00828   0.00424  -0.1989  0.5985  0.6022
   6.030   1.5792   0.00829   0.00424  -0.1989  0.5985  0.6023
   6.040   1.5799   0.00829   0.00425  -0.1989  0.5983  0.6024
   6.050   1.5809   0.00829   0.00425  -0.1988  0.5983  0.6025
   6.060   1.5817   0.00829   0.00425  -0.1988  0.5981  0.6026
   6.070   1.5825   0.00830   0.00426  -0.1988  0.5981  0.6027
   6.080   1.5834   0.00830   0.00426  -0.1988  0.5980  0.6028
   6.090   1.5843   0.00830   0.00426  -0.1987  0.5979  0.6029
   6.100   1.5851   0.00830   0.00427  -0.1987  0.5977  0.6030
   6.110   1.5859   0.00830   0.00427  -0.1987  0.5977  0.6031
   6.120   1.5868   0.00831   0.00427  -0.1986  0.5976  0.6032
   6.130   1.5875   0.00831   0.00428  -0.1986  0.5974  0.6032
   6.140   1.5884   0.00831   0.00428  -0.1986  0.5974  0.6033
   6.150   1.5892   0.00831   0.00428  -0.1985  0.5972  0.6035
   6.160   1.5902   0.00832   0.00429  -0.1985  0.5972  0.6036
   6.170   1.5910   0.00832   0.00429  -0.1985  0.5971  0.6036
   6.180   1.5918   0.00832   0.00429  -0.1984  0.5970  0.6037
   6.190   1.5926   0.00832   0.00430  -0.1984  0.5969  0.6039
   6.200   1.5933   0.00833   0.00430  -0.1983  0.5967  0.6040
   6.210   1.5942   0.00833   0.00431  -0.1983  0.5967  0.6041
   6.220   1.5950   0.00833   0.00431  -0.1983  0.5966  0.6042
   6.230   1.5959   0.00834   0.00431  -0.1983  0.5965  0.6043
   6.240   1.5967   0.00834   0.00432  -0.1982  0.5964  0.6044
   6.250   1.5975   0.00834   0.00432  -0.1982  0.5963  0.6044
   6.260   1.5983   0.00835   0.00432  -0.1981  0.5962  0.6045
   6.270   1.5991   0.00835   0.00433  -0.1981  0.5961  0.6047
   6.280   1.6000   0.00835   0.00433  -0.1981  0.5961  0.6047
   6.290   1.6008   0.00836   0.00434  -0.1981  0.5960  0.6048
   6.300   1.6017   0.00836   0.00434  -0.1980  0.5959  0.6050
   6.310   1.6024   0.00836   0.00434  -0.1980  0.5958  0.6050
   6.320   1.6033   0.00837   0.00435  -0.1980  0.5957  0.6052
   6.330   1.6040   0.00837   0.00435  -0.1979  0.5956  0.6052
   6.340   1.6049   0.00837   0.00435  -0.1979  0.5955  0.6054
   6.350   1.6058   0.00838   0.00436  -0.1979  0.5955  0.6054
   6.360   1.6065   0.00838   0.00436  -0.1978  0.5953  0.6056
   6.370   1.6073   0.00839   0.00437  -0.1978  0.5952  0.6056
   6.380   1.6081   0.00839   0.00437  -0.1977  0.5951  0.6058
   6.390   1.6089   0.00839   0.00437  -0.1977  0.5950  0.6059
   6.400   1.6097   0.00840   0.00438  -0.1977  0.5950  0.6059
   6.410   1.6105   0.00840   0.00438  -0.1976  0.5949  0.6060
   6.420   1.6114   0.00841   0.00439  -0.1976  0.5948  0.6061
   6.430   1.6121   0.00841   0.00439  -0.1976  0.5947  0.6063
   6.440   1.6130   0.00842   0.00440  -0.1975  0.5946  0.6063
   6.450   1.6138   0.00842   0.00440  -0.1975  0.5945  0.6064
   6.460   1.6146   0.00843   0.00441  -0.1975  0.5944  0.6065
   6.470   1.6154   0.00843   0.00441  -0.1974  0.5943  0.6066
   6.480   1.6162   0.00844   0.00441  -0.1974  0.5942  0.6066
   6.490   1.6170   0.00844   0.00442  -0.1973  0.5941  0.6068
   6.500   1.6178   0.00845   0.00442  -0.1973  0.5941  0.6069
   6.510   1.6187   0.00845   0.00443  -0.1973  0.5940  0.6070
   6.520   1.6194   0.00846   0.00443  -0.1972  0.5939  0.6071
   6.390   1.6089   0.00839   0.00437  -0.1977  0.5950  0.6059
   5.000   1.4897   0.00806   0.00394  -0.2017  0.6069  0.5929
   5.005   1.4902   0.00806   0.00394  -0.2017  0.6068  0.5930
   5.010   1.4907   0.00806   0.00394  -0.2017  0.6068  0.5930
   5.015   1.4912   0.00806   0.00394  -0.2017  0.6068  0.5931
   5.020   1.4917   0.00806   0.00394  -0.2017  0.6068  0.5931
   5.025   1.4921   0.00807   0.00394  -0.2017  0.6068  0.5932
   5.030   1.4926   0.00807   0.00394  -0.2017  0.6067  0.5932
   5.035   1.4931   0.00807   0.00395  -0.2017  0.6067  0.5932
   5.040   1.4936   0.00807   0.00395  -0.2017  0.6067  0.5933
   5.045   1.4940   0.00807   0.00395  -0.2016  0.6067  0.5933
   5.050   1.4945   0.00807   0.00395  -0.2016  0.6066  0.5934
   5.055   1.4950   0.00807   0.00395  -0.2016  0.6066  0.5934
   5.060   1.4955   0.00807   0.00395  -0.2016  0.6066  0.5934
   5.065   1.4960   0.00807   0.00395  -0.2016  0.6066  0.5935
   5.070   1.4965   0.00807   0.00395  -0.2016  0.6065  0.5936
   5.075   1.4969   0.00807   0.00395  -0.2016  0.6065  0.5936
   5.080   1.4973   0.00807   0.00395  -0.2016  0.6065  0.5936
   5.085   1.4979   0.00808   0.00396  -0.2016  0.6065  0.5937
   5.090   1.4983   0.00808   0.00396  -0.2016  0.6064  0.5937
   5.095   1.4988   0.00808   0.00396  -0.2016  0.6064  0.5938
   5.100   1.4993   0.00808   0.00396  -0.2016  0.6064  0.5938
   5.105   1.4998   0.00808   0.00396  -0.2016  0.6064  0.5939
   5.110   1.5002   0.00808   0.00396  -0.2016  0.6063  0.5939
   5.115   1.5007   0.00808   0.00396  -0.2016  0.6063  0.5939
   5.120   1.5012   0.00808   0.00397  -0.2016  0.6063  0.5940
   5.125   1.5016   0.00808   0.00396  -0.2015  0.6062  0.5940
   5.130   1.5021   0.00808   0.00397  -0.2016  0.6062  0.5941
   5.135   1.5026   0.00808   0.00397  -0.2015  0.6062  0.5941
   5.140   1.5030   0.00808   0.00397  -0.2015  0.6062  0.5942
   5.145   1.5035   0.00809   0.00397  -0.2015  0.6061  0.5942
   5.150   1.5039   0.00809   0.00397  -0.2015  0.6061  0.5943
   5.155   1.5044   0.00809   0.00397  -0.2015  0.6061  0.5943
   5.160   1.5048   0.00809   0.00397  -0.2015  0.6060  0.5943
   5.165   1.5054   0.00809   0.00397  -0.2015  0.6060  0.5944
   5.170   1.5058   0.00809   0.00398  -0.2015  0.6060  0.5944
   5.175   1.5063   0.00809   0.00398  -0.2015  0.6060  0.5945
   5.180   1.5068   0.00809   0.00398  -0.2015  0.6060  0.5945
   5.185   1.5072   0.00809   0.00398  -0.2015  0.6059  0.5945
   5.190   1.5076   0.00809   0.00398  -0.2014  0.6059  0.5946
   5.195   1.5081   0.00809   0.00398  -0.2014  0.6059  0.5946
   5.200   1.5085   0.00810   0.00398  -0.2014  0.6058  0.5947
   5.205   1.5090   0.00810   0.00398  -0.2014  0.6058  0.5947
   5.210   1.5094   0.00810   0.00398  -0.2014  0.6058  0.5948
   5.215   1.5099   0.00810   0.00399  -0.2014  0.6058  0.5948
   5.220   1.5104   0.00810   0.00399  -0.2014  0.6057  0.5948
   5.225   1.5108   0.00810   0.00399  -0.2014  0.6057  0.5949
   5.230   1.5112   0.00810   0.00399  -0.2014  0.6057  0.5950
   5.235   1.5116   0.00810   0.00399  -0.2013  0.6056  0.5950
   5.240   1.5121   0.00810   0.00399  -0.2013  0.6056  0.5950
   5.245   1.5126   0.00810   0.00399  -0.2013  0.6056  0.5951
   5.250   1.5129   0.00810   0.00399  -0.2013  0.6055  0.5951
   5.255   1.5134   0.00811   0.00400  -0.2013  0.6055  0.5952
   5.260   1.5139   0.00811   0.00400  -0.2013  0.6055  0.5952
   5.265   1.5143   0.00811   0.00400  -0.2013  0.6054  0.5952
   5.270   1.5147   0.00811   0.00400  -0.2012  0.6054  0.5953
   5.275   1.5153   0.00811   0.00400  -0.2013  0.6054  0.5953
   5.280   1.5156   0.00811   0.00400  -0.2012  0.6053  0.5954
   5.285   1.5161   0.00811   0.00400  -0.2012  0.6053  0.5955
   5.290   1.5165   0.00811   0.00400  -0.2012  0.6053  0.5954
   5.295   1.5170   0.00811   0.00401  -0.2012  0.6053  0.5955
   5.300   1.5175   0.00811   0.00401  -0.2012  0.6052  0.5955
   5.305   1.5180   0.00812   0.00401  -0.2012  0.6052  0.5956
   5.310   1.5183   0.00812   0.00401  -0.2012  0.6051  0.5956
   5.315   1.5188   0.00812   0.00401  -0.2012  0.6051  0.5957
   5.320   1.5192   0.00812   0.00401  -0.2011  0.6051  0.5957
   5.325   1.5197   0.00812   0.00401  -0.2011  0.6050  0.5958
   5.330   1.5202   0.00812   0.00401  -0.2011  0.6050  0.5958
   5.335   1.5206   0.00812   0.00401  -0.2011  0.6050  0.5958
   5.340   1.5211   0.00812   0.00401  -0.2011  0.6049  0.5959
   5.345   1.5215   0.00812   0.00401  -0.2011  0.6049  0.5959
   5.350   1.5219   0.00812   0.00401  -0.2011  0.6049  0.5959
   5.355   1.5224   0.00813   0.00402  -0.2011  0.6048  0.5960
   5.360   1.5228   0.00813   0.00402  -0.2010  0.6048  0.5960
   5.365   1.5233   0.00813   0.00402  -0.2011  0.6048  0.5961
   5.370   1.5237   0.00813   0.00402  -0.2010  0.6047  0.5961
   5.375   1.5242   0.00813   0.00402  -0.2010  0.6047  0.5962
   5.380   1.5247   0.00813   0.00402  -0.2010  0.6046  0.5962
   5.385   1.5251   0.00813   0.00402  -0.2010  0.6046  0.5962
   5.390   1.5256   0.00813   0.00402  -0.2010  0.6046  0.5962
   5.395   1.5260   0.00814   0.00402  -0.2010  0.6045  0.5963
   5.400   1.5264   0.00814   0.00402  -0.2010  0.6044  0.5963
   5.405   1.5269   0.00814   0.00403  -0.2010  0.6044  0.5964
   5.410   1.5273   0.00814   0.00403  -0.2009  0.6044  0.5964
   5.415   1.5278   0.00814   0.00403  -0.2009  0.6044  0.5964
   5.420   1.5283   0.00814   0.00403  -0.2009  0.6043  0.5965
   5.425   1.5287   0.00814   0.00403  -0.2009  0.6043  0.5965
   5.430   1.5292   0.00814   0.00403  -0.2009  0.6042  0.5965
   5.435   1.5296   0.00815   0.00403  -0.2009  0.6042  0.5966
   5.440   1.5301   0.00815   0.00403  -0.2009  0.6041  0.5966
   5.445   1.5305   0.00815   0.00403  -0.2009  0.6041  0.5966
   5.450   1.5310   0.00815   0.00403  -0.2009  0.6040  0.5967
   5.455   1.5314   0.00815   0.00404  -0.2009  0.6040  0.5967
   5.460   1.5320   0.00815   0.00404  -0.2009  0.6040  0.5968
   5.465   1.5324   0.00816   0.00404  -0.2009  0.6039  0.5968
   5.470   1.5328   0.00816   0.00404  -0.2008  0.6039  0.5968
   5.000   1.4897   0.00806   0.00394  -0.2017  0.6069  0.5929
   5.005   1.4902   0.00806   0.00394  -0.2017  0.6068  0.5930
   5.010   1.4907   0.00806   0.00394  -0.2017  0.6068  0.5930
   5.015   1.4912   0.00806   0.00394  -0.2017  0.6068  0.5931
   5.020   1.4917   0.00806   0.00394  -0.2017  0.6068  0.5931
   5.025   1.4921   0.00807   0.00394  -0.2017  0.6068  0.5932
   5.030   1.4926   0.00807   0.00394  -0.2017  0.6067  0.5932
   5.035   1.4931   0.00807   0.00395  -0.2017  0.6067  0.5932
   5.040   1.4936   0.00807   0.00395  -0.2017  0.6067  0.5933
   5.045   1.4940   0.00807   0.00395  -0.2016  0.6067  0.5933
   5.050   1.4945   0.00807   0.00395  -0.2016  0.6066  0.5934
   5.055   1.4950   0.00807   0.00395  -0.2016  0.6066  0.5934
   5.060   1.4955   0.00807   0.00395  -0.2016  0.6066  0.5934
   5.065   1.4960   0.00807   0.00395  -0.2016  0.6066  0.5935
   5.070   1.4965   0.00807   0.00395  -0.2016  0.6065  0.5936
   5.075   1.4969   0.00807   0.00395  -0.2016  0.6065  0.5936
   5.080   1.4973   0.00807   0.00395  -0.2016  0.6065  0.5936
   5.085   1.4979   0.00808   0.00396  -0.2016  0.6065  0.5937
   5.090   1.4983   0.00808   0.00396  -0.2016  0.6064  0.5937
   5.095   1.4988   0.00808   0.00396  -0.2016  0.6064  0.5938
   5.100   1.4993   0.00808   0.00396  -0.2016  0.6064  0.5938
   5.105   1.4998   0.00808   0.00396  -0.2016  0.6064  0.5939
   5.110   1.5002   0.00808   0.00396  -0.2016  0.6063  0.5939
   5.115   1.5007   0.00808   0.00396  -0.2016  0.6063  0.5939
   5.120   1.5012   0.00808   0.00397  -0.2016  0.6063  0.5940
   5.125   1.5016   0.00808   0.00396  -0.2015  0.6062  0.5940
   5.130   1.5021   0.00808   0.00397  -0.2016  0.6062  0.5941
   5.135   1.5026   0.00808   0.00397  -0.2015  0.6062  0.5941
   5.140   1.5030   0.00808   0.00397  -0.2015  0.6062  0.5942
   5.145   1.5035   0.00809   0.00397  -0.2015  0.6061  0.5942
   5.150   1.5039   0.00809   0.00397  -0.2015  0.6061  0.5943
   5.155   1.5044   0.00809   0.00397  -0.2015  0.6061  0.5943
   5.160   1.5048   0.00809   0.00397  -0.2015  0.6060  0.5943
   5.165   1.5054   0.00809   0.00397  -0.2015  0.6060  0.5944
   5.170   1.5058   0.00809   0.00398  -0.2015  0.6060  0.5944
   5.175   1.5063   0.00809   0.00398  -0.2015  0.6060  0.5945
   5.180   1.5068   0.00809   0.00398  -0.2015  0.6060  0.5945
   5.185   1.5072   0.00809   0.00398  -0.2015  0.6059  0.5945
   5.190   1.5076   0.00809   0.00398  -0.2014  0.6059  0.5946
   5.195   1.5081   0.00809   0.00398  -0.2014  0.6059  0.5946
   5.200   1.5085   0.00810   0.00398  -0.2014  0.6058  0.5947
   5.205   1.5090   0.00810   0.00398  -0.2014  0.6058  0.5947
   5.210   1.5094   0.00810   0.00398  -0.2014  0.6058  0.5948
   5.215   1.5099   0.00810   0.00399  -0.2014  0.6058  0.5948
   5.220   1.5104   0.00810   0.00399  -0.2014  0.6057  0.5948
   5.225   1.5108   0.00810   0.00399  -0.2014  0.6057  0.5949
   5.230   1.5112   0.00810   0.00399  -0.2014  0.6057  0.5950
   5.235   1.5116   0.00810   0.00399  -0.2013  0.6056  0.5950
   5.240   1.5121   0.00810   0.00399  -0.2013  0.6056  0.5950
   5.245   1.5126   0.00810   0.00399  -0.2013  0.6056  0.5951
   5.250   1.5129   0.00810   0.00399  -0.2013  0.6055  0.5951
   5.255   1.5134   0.00811   0.00400  -0.2013  0.6055  0.5952
   5.260   1.5139   0.00811   0.00400  -0.2013  0.6055  0.5952
   5.265   1.5143   0.00811   0.00400  -0.2013  0.6054  0.5952
   5.270   1.5147   0.00811   0.00400  -0.2012  0.6054  0.5953
   5.275   1.5153   0.00811   0.00400  -0.2013  0.6054  0.5953
   5.280   1.5156   0.00811   0.00400  -0.2012  0.6053  0.5954
   5.285   1.5161   0.00811   0.00400  -0.2012  0.6053  0.5955
   5.290   1.5165   0.00811   0.00400  -0.2012  0.6053  0.5954
   5.295   1.5170   0.00811   0.00401  -0.2012  0.6053  0.5955
   5.300   1.5175   0.00811   0.00401  -0.2012  0.6052  0.5955
   5.305   1.5180   0.00812   0.00401  -0.2012  0.6052  0.5956
   5.310   1.5183   0.00812   0.00401  -0.2012  0.6051  0.5956
   5.315   1.5188   0.00812   0.00401  -0.2012  0.6051  0.5957
   5.320   1.5192   0.00812   0.00401  -0.2011  0.6051  0.5957
   5.325   1.5197   0.00812   0.00401  -0.2011  0.6050  0.5958
   5.330   1.5202   0.00812   0.00401  -0.2011  0.6050  0.5958
   5.335   1.5206   0.00812   0.00401  -0.2011  0.6050  0.5958
   5.340   1.5211   0.00812   0.00401  -0.2011  0.6049  0.5959
   5.345   1.5215   0.00812   0.00401  -0.2011  0.6049  0.5959
   5.350   1.5219   0.00812   0.00401  -0.2011  0.6049  0.5959
   5.355   1.5224   0.00813   0.00402  -0.2011  0.6048  0.5960
   5.360   1.5228   0.00813   0.00402  -0.2010  0.6048  0.5960
   5.365   1.5233   0.00813   0.00402  -0.2011  0.6048  0.5961
   5.370   1.5237   0.00813   0.00402  -0.2010  0.6047  0.5961
   5.375   1.5242   0.00813   0.00402  -0.2010  0.6047  0.5962
   5.380   1.5247   0.00813   0.00402  -0.2010  0.6046  0.5962
   5.385   1.5251   0.00813   0.00402  -0.2010  0.6046  0.5962
   5.390   1.5256   0.00813   0.00402  -0.2010  0.6046  0.5962
   5.395   1.5260   0.00814   0.00402  -0.2010  0.6045  0.5963
   5.400   1.5264   0.00814   0.00402  -0.2010  0.6044  0.5963
   5.405   1.5269   0.00814   0.00403  -0.2010  0.6044  0.5964
   5.410   1.5273   0.00814   0.00403  -0.2009  0.6044  0.5964
   5.415   1.5278   0.00814   0.00403  -0.2009  0.6044  0.5964
   5.420   1.5283   0.00814   0.00403  -0.2009  0.6043  0.5965
   5.425   1.5287   0.00814   0.00403  -0.2009  0.6043  0.5965
   5.430   1.5292   0.00814   0.00403  -0.2009  0.6042  0.5965
   5.435   1.5296   0.00815   0.00403  -0.2009  0.6042  0.5966
   5.440   1.5301   0.00815   0.00403  -0.2009  0.6041  0.5966
   5.445   1.5305   0.00815   0.00403  -0.2009  0.6041  0.5966
   5.450   1.5310   0.00815   0.00403  -0.2009  0.6040  0.5967
   5.455   1.5314   0.00815   0.00404  -0.2009  0.6040  0.5967
   5.460   1.5320   0.00815   0.00404  -0.2009  0.6040  0.5968
   5.465   1.5324   0.00816   0.00404  -0.2009  0.6039  0.5968
   5.470   1.5328   0.00816   0.00404  -0.2008  0.6039  0.5968
