  
       XFOIL         Version 6.94
  
 Calculated polar for: 1080                                            
  
 1 1 Reynolds number fixed          Mach number fixed         
  
 xtrf =   1.000 (top)        1.000 (bottom)  
 Mach =   0.000     Re =     2.000 e 6     Ncrit =   9.000
  
  alpha     CL        CD       CDp       CM    Top_Xtr Bot_Xtr
 ------- -------- --------- --------- -------- ------- -------
   0.000   0.3394   0.00556   0.00159  -0.0619  0.5867  0.7432
   0.250   0.3688   0.00560   0.00162  -0.0623  0.5858  0.7486
   0.500   0.3979   0.00563   0.00165  -0.0627  0.5847  0.7531
   0.750   0.4271   0.00567   0.00169  -0.0630  0.5835  0.7572
   1.000   0.4561   0.00574   0.00173  -0.0634  0.5819  0.7614
   1.250   0.4850   0.00580   0.00179  -0.0638  0.5800  0.7651
   1.500   0.5142   0.00581   0.00182  -0.0642  0.5789  0.7680
   1.750   0.5434   0.00583   0.00183  -0.0646  0.5775  0.7700
   2.000   0.5726   0.00584   0.00185  -0.0651  0.5758  0.7714
   2.250   0.6016   0.00583   0.00185  -0.0655  0.5739  0.7731
   2.500   0.6304   0.00585   0.00186  -0.0659  0.5721  0.7745
   2.750   0.6590   0.00591   0.00191  -0.0662  0.5698  0.7758
   3.000   0.6881   0.00590   0.00193  -0.0666  0.5679  0.7770
   3.250   0.7170   0.00590   0.00194  -0.0671  0.5657  0.7781
   3.500   0.7459   0.00591   0.00196  -0.0675  0.5633  0.7793
   3.750   0.7743   0.00595   0.00198  -0.0678  0.5607  0.7803
   4.000   0.8029   0.00598   0.00202  -0.0682  0.5582  0.7814
   4.250   0.8318   0.00599   0.00205  -0.0686  0.5557  0.7823
   4.500   0.8604   0.00599   0.00207  -0.0690  0.5527  0.7834
   4.750   0.8881   0.00603   0.00211  -0.0692  0.5495  0.7845
   5.000   0.9168   0.00604   0.00215  -0.0696  0.5461  0.7855
   5.250   0.9450   0.00607   0.00220  -0.0699  0.5418  0.7866
   5.500   0.9726   0.00611   0.00225  -0.0701  0.5372  0.7878
   5.750   1.0005   0.00615   0.00230  -0.0704  0.5310  0.7889
   6.000   1.0277   0.00621   0.00236  -0.0705  0.5230  0.7900
   6.250   1.0538   0.00631   0.00244  -0.0704  0.5115  0.7912
   6.500   1.0777   0.00648   0.00255  -0.0699  0.4929  0.7923
   6.750   1.0953   0.00687   0.00279  -0.0683  0.4588  0.7937
   7.000   1.1093   0.00736   0.00313  -0.0659  0.4234  0.7953
   7.250   1.1222   0.00785   0.00348  -0.0634  0.3911  0.7969
   7.500   1.1335   0.00834   0.00384  -0.0606  0.3612  0.7985
   7.750   1.1403   0.00878   0.00417  -0.0569  0.3348  0.8003
   8.000   1.1453   0.00925   0.00454  -0.0528  0.3121  0.8022
   8.250   1.1500   0.00977   0.00496  -0.0488  0.2904  0.8041
   8.500   1.1543   0.01030   0.00543  -0.0449  0.2706  0.8064
   8.750   1.1583   0.01088   0.00595  -0.0410  0.2524  0.8087
   9.000   1.1601   0.01158   0.00658  -0.0371  0.2345  0.8112
   9.250   1.1631   0.01233   0.00728  -0.0336  0.2203  0.8135
   9.500   1.1641   0.01322   0.00813  -0.0300  0.2044  0.8163
   9.750   1.1668   0.01418   0.00906  -0.0270  0.1916  0.8191
  10.000   1.1717   0.01515   0.01001  -0.0244  0.1803  0.8220
  10.250   1.1737   0.01633   0.01114  -0.0217  0.1676  0.8250
  10.500   1.1779   0.01746   0.01227  -0.0193  0.1563  0.8284
  10.750   1.1839   0.01857   0.01336  -0.0173  0.1474  0.8321
  11.000   1.1875   0.01984   0.01460  -0.0152  0.1367  0.8357
  11.250   1.1911   0.02113   0.01587  -0.0131  0.1259  0.8399
  11.500   1.1975   0.02230   0.01704  -0.0114  0.1182  0.8444
  11.750   1.2015   0.02361   0.01833  -0.0095  0.1093  0.8495
  12.000   1.2072   0.02486   0.01958  -0.0078  0.1010  0.8553
