  
       XFOIL         Version 6.94
  
 Calculated polar for: testfoil                                        
  
 1 1 Reynolds number fixed          Mach number fixed         
  
 xtrf =   1.000 (top)        1.000 (bottom)  
 Mach =   0.000     Re =     2.000 e 6     Ncrit =   9.000
  
  alpha     CL        CD       CDp       CM    Top_Xtr Bot_Xtr
 ------- -------- --------- --------- -------- ------- -------
   4.000   1.3664   0.00809   0.00389  -0.1968  0.6094  0.5837
   4.005   1.3669   0.00809   0.00389  -0.1968  0.6094  0.5838
   4.010   1.3675   0.00809   0.00390  -0.1968  0.6094  0.5839
   4.015   1.3680   0.00809   0.00390  -0.1968  0.6094  0.5838
   4.020   1.3686   0.00810   0.00390  -0.1968  0.6094  0.5839
   4.025   1.3692   0.00810   0.00390  -0.1968  0.6093  0.5839
   4.030   1.3698   0.00810   0.00390  -0.1969  0.6093  0.5840
   4.035   1.3703   0.00810   0.00390  -0.1969  0.6093  0.5840
   4.040   1.3709   0.00810   0.00390  -0.1969  0.6093  0.5840
   4.045   1.3715   0.00810   0.00391  -0.1969  0.6093  0.5841
   4.050   1.3720   0.00811   0.00391  -0.1969  0.6092  0.5841
   4.055   1.3726   0.00811   0.00391  -0.1969  0.6092  0.5842
   4.060   1.3732   0.00811   0.00391  -0.1969  0.6092  0.5842
   4.065   1.3737   0.00811   0.00391  -0.1969  0.6092  0.5842
   4.070   1.3743   0.00811   0.00391  -0.1970  0.6091  0.5842
   4.075   1.3749   0.00811   0.00391  -0.1970  0.6091  0.5843
   4.080   1.3755   0.00812   0.00392  -0.1970  0.6091  0.5844
   4.085   1.3760   0.00812   0.00392  -0.1970  0.6091  0.5844
   4.090   1.3766   0.00812   0.00392  -0.1970  0.6091  0.5844
   4.095   1.3772   0.00812   0.00392  -0.1970  0.6091  0.5844
   4.100   1.3778   0.00812   0.00392  -0.1971  0.6090  0.5845
   4.105   1.3783   0.00813   0.00392  -0.1971  0.6090  0.5846
   4.110   1.3789   0.00813   0.00393  -0.1971  0.6090  0.5846
   4.115   1.3795   0.00813   0.00393  -0.1971  0.6090  0.5846
   4.120   1.3801   0.00813   0.00393  -0.1971  0.6089  0.5847
   4.125   1.3807   0.00813   0.00393  -0.1971  0.6089  0.5847
   4.130   1.3813   0.00814   0.00393  -0.1972  0.6089  0.5848
   4.135   1.3818   0.00814   0.00393  -0.1972  0.6089  0.5848
   4.140   1.3824   0.00814   0.00394  -0.1972  0.6089  0.5848
   4.145   1.3830   0.00814   0.00394  -0.1972  0.6088  0.5849
   4.150   1.3836   0.00814   0.00394  -0.1972  0.6088  0.5849
   4.155   1.3842   0.00815   0.00394  -0.1972  0.6088  0.5850
   4.160   1.3848   0.00815   0.00394  -0.1973  0.6088  0.5849
   4.165   1.3854   0.00815   0.00395  -0.1973  0.6087  0.5850
   4.170   1.3860   0.00815   0.00395  -0.1973  0.6087  0.5850
   4.175   1.3866   0.00815   0.00395  -0.1973  0.6087  0.5851
   4.180   1.3871   0.00816   0.00395  -0.1973  0.6087  0.5851
   4.185   1.3877   0.00816   0.00395  -0.1974  0.6087  0.5851
   4.190   1.3883   0.00816   0.00395  -0.1974  0.6086  0.5852
   4.195   1.3889   0.00816   0.00396  -0.1974  0.6086  0.5853
   4.200   1.3895   0.00816   0.00396  -0.1974  0.6086  0.5852
   4.205   1.3901   0.00817   0.00396  -0.1974  0.6086  0.5853
   4.210   1.3907   0.00817   0.00396  -0.1975  0.6085  0.5853
   4.215   1.3913   0.00817   0.00396  -0.1975  0.6085  0.5853
   4.220   1.3919   0.00817   0.00397  -0.1975  0.6085  0.5854
   4.225   1.3925   0.00818   0.00397  -0.1975  0.6085  0.5854
   4.230   1.3931   0.00818   0.00397  -0.1976  0.6084  0.5854
   4.235   1.3937   0.00818   0.00397  -0.1976  0.6084  0.5855
   4.240   1.3943   0.00818   0.00397  -0.1976  0.6084  0.5854
   4.245   1.3949   0.00818   0.00397  -0.1976  0.6084  0.5856
   4.250   1.3956   0.00819   0.00398  -0.1976  0.6083  0.5856
   4.255   1.3962   0.00819   0.00398  -0.1977  0.6083  0.5856
   4.260   1.3968   0.00819   0.00398  -0.1977  0.6083  0.5857
   4.265   1.3974   0.00819   0.00398  -0.1977  0.6083  0.5857
   4.270   1.3980   0.00820   0.00399  -0.1977  0.6082  0.5858
   4.275   1.3987   0.00820   0.00399  -0.1978  0.6082  0.5857
   4.280   1.3993   0.00820   0.00399  -0.1978  0.6082  0.5857
   4.285   1.3999   0.00820   0.00399  -0.1978  0.6082  0.5858
   4.290   1.4004   0.00821   0.00399  -0.1978  0.6082  0.5859
   4.295   1.4008   0.00821   0.00399  -0.1978  0.6081  0.5858
   4.300   1.4014   0.00821   0.00400  -0.1978  0.6081  0.5859
   4.305   1.4019   0.00821   0.00400  -0.1978  0.6081  0.5859
   4.310   1.4024   0.00821   0.00400  -0.1978  0.6081  0.5860
   4.315   1.4029   0.00821   0.00400  -0.1978  0.6081  0.5860
   4.320   1.4033   0.00821   0.00400  -0.1978  0.6081  0.5860
   4.325   1.4038   0.00821   0.00401  -0.1978  0.6081  0.5861
   4.330   1.4043   0.00822   0.00401  -0.1978  0.6081  0.5861
   4.335   1.4048   0.00822   0.00401  -0.1978  0.6081  0.5861
   4.340   1.4053   0.00822   0.00401  -0.1978  0.6080  0.5862
   4.345   1.4058   0.00822   0.00401  -0.1978  0.6080  0.5862
   4.350   1.4063   0.00822   0.00401  -0.1978  0.6080  0.5863
   4.355   1.4068   0.00822   0.00402  -0.1978  0.6080  0.5862
   4.360   1.4072   0.00822   0.00402  -0.1978  0.6080  0.5863
   4.365   1.4078   0.00822   0.00402  -0.1978  0.6080  0.5863
   4.370   1.4083   0.00823   0.00402  -0.1978  0.6080  0.5863
   4.375   1.4087   0.00823   0.00402  -0.1978  0.6080  0.5864
   4.380   1.4092   0.00823   0.00403  -0.1978  0.6079  0.5864
   4.385   1.4097   0.00823   0.00403  -0.1978  0.6079  0.5864
   4.390   1.4103   0.00823   0.00403  -0.1978  0.6079  0.5865
   4.395   1.4107   0.00823   0.00403  -0.1978  0.6079  0.5865
   4.400   1.4112   0.00823   0.00403  -0.1978  0.6079  0.5865
   4.405   1.4117   0.00823   0.00403  -0.1978  0.6079  0.5865
   4.410   1.4122   0.00824   0.00404  -0.1978  0.6079  0.5866
