  
       XFOIL         Version 6.94
  
 Calculated polar for: 1080                                            
  
 1 1 Reynolds number fixed          Mach number fixed         
  
 xtrf =   1.000 (top)        1.000 (bottom)  
 Mach =   0.000     Re =     2.000 e 6     Ncrit =   9.000
  
  alpha     CL        CD       CDp       CM    Top_Xtr Bot_Xtr
 ------- -------- --------- --------- -------- ------- -------
   3.000   1.2804   0.00921   0.00518  -0.1704  0.5347  0.7608
   3.250   1.3038   0.00930   0.00532  -0.1700  0.5341  0.7710
   3.500   1.3265   0.00945   0.00550  -0.1695  0.5336  0.7774
   3.750   1.3503   0.00955   0.00559  -0.1693  0.5331  0.7786
   4.000   1.3745   0.00962   0.00566  -0.1692  0.5325  0.7789
   4.250   1.3989   0.00967   0.00571  -0.1692  0.5320  0.7789
   4.500   1.4232   0.00973   0.00577  -0.1692  0.5314  0.7790
   4.750   1.4474   0.00980   0.00583  -0.1692  0.5308  0.7790
   5.000   1.4706   0.00987   0.00590  -0.1690  0.5303  0.7791
   5.250   1.4931   0.00994   0.00597  -0.1687  0.5296  0.7792
   5.500   1.5157   0.01001   0.00604  -0.1684  0.5290  0.7793
   5.750   1.5383   0.01009   0.00613  -0.1682  0.5284  0.7794
   6.000   1.5609   0.01018   0.00622  -0.1680  0.5277  0.7795
   6.250   1.5831   0.01028   0.00633  -0.1677  0.5269  0.7796
   6.500   1.6049   0.01040   0.00645  -0.1674  0.5258  0.7797
   6.750   1.6263   0.01054   0.00659  -0.1670  0.5246  0.7799
   7.000   1.6470   0.01074   0.00679  -0.1666  0.5231  0.7800
   7.250   1.6682   0.01101   0.00708  -0.1663  0.5212  0.7808
   7.500   1.6880   0.01127   0.00736  -0.1658  0.5199  0.7815
   7.750   1.7079   0.01135   0.00747  -0.1652  0.5197  0.7823
   8.000   1.7270   0.01145   0.00759  -0.1645  0.5194  0.7832
   8.250   1.7443   0.01158   0.00775  -0.1635  0.5189  0.7841
   8.500   1.7623   0.01173   0.00793  -0.1627  0.5184  0.7849
   8.750   1.7790   0.01192   0.00816  -0.1617  0.5177  0.7858
   9.000   1.7953   0.01214   0.00842  -0.1607  0.5169  0.7866
   9.250   1.8120   0.01237   0.00868  -0.1598  0.5160  0.7874
   9.500   1.8270   0.01265   0.00899  -0.1586  0.5149  0.7882
   9.750   1.8430   0.01293   0.00930  -0.1577  0.5137  0.7890
  10.000   1.8569   0.01327   0.00968  -0.1565  0.5122  0.7898
  10.250   1.8707   0.01364   0.01008  -0.1553  0.5107  0.7906
  10.500   1.8821   0.01412   0.01058  -0.1539  0.5089  0.7915
  10.750   1.8878   0.01482   0.01129  -0.1516  0.5064  0.7924
  11.000   1.8884   0.01578   0.01226  -0.1488  0.5028  0.7934
  11.250   1.8958   0.01658   0.01308  -0.1471  0.4997  0.7942
  11.500   1.8967   0.01776   0.01432  -0.1447  0.4985  0.7952
  11.750   1.8889   0.01952   0.01615  -0.1415  0.4942  0.7962
  12.000   1.8836   0.02121   0.01790  -0.1387  0.4916  0.7971
