  
       XFOIL         Version 6.94
  
 Calculated polar for: 1080                                            
  
 1 1 Reynolds number fixed          Mach number fixed         
  
 xtrf =   1.000 (top)        1.000 (bottom)  
 Mach =   0.000     Re =     2.000 e 6     Ncrit =   9.000
  
  alpha     CL        CD       CDp       CM    Top_Xtr Bot_Xtr
 ------- -------- --------- --------- -------- ------- -------
   3.000   1.3656   0.01083   0.00492  -0.1652  0.3578  0.1315
   3.250   1.3917   0.01095   0.00506  -0.1649  0.3539  0.1333
   3.500   1.4157   0.01115   0.00524  -0.1643  0.3484  0.1350
   3.750   1.4377   0.01142   0.00547  -0.1634  0.3413  0.1366
   4.000   1.4623   0.01157   0.00563  -0.1629  0.3373  0.1381
   4.250   1.4846   0.01179   0.00584  -0.1620  0.3314  0.1392
   4.500   1.5010   0.01216   0.00615  -0.1601  0.3225  0.1397
   4.750   1.5188   0.01236   0.00635  -0.1584  0.3170  0.1431
   5.000   1.5333   0.01265   0.00663  -0.1562  0.3100  0.1492
   5.250   1.5434   0.01313   0.00707  -0.1534  0.3009  0.1529
   5.500   1.5594   0.01344   0.00740  -0.1515  0.2962  0.1561
   5.750   1.5699   0.01393   0.00786  -0.1489  0.2891  0.1583
   6.000   1.5727   0.01463   0.00853  -0.1452  0.2801  0.1594
   6.250   1.5844   0.01514   0.00904  -0.1430  0.2753  0.1631
   6.500   1.5844   0.01603   0.00994  -0.1393  0.2685  0.1686
   6.750   1.5717   0.01757   0.01149  -0.1346  0.2607  0.1715
   7.000   1.5592   0.02051   0.01451  -0.1326  0.2569  0.1740
   7.250   1.5293   0.02474   0.01880  -0.1296  0.2523  0.1746
   7.500   1.4928   0.02871   0.02280  -0.1252  0.2474  0.1746
   7.750   1.4710   0.03175   0.02584  -0.1221  0.2406  0.1761
   8.000   1.4625   0.03412   0.02824  -0.1200  0.2379  0.1781
   8.250   1.4605   0.03605   0.03018  -0.1185  0.2343  0.1799
   8.500   1.4581   0.03809   0.03223  -0.1170  0.2299  0.1870
   8.750   1.4499   0.04083   0.03498  -0.1155  0.2245  0.1917
   9.000   1.4562   0.04250   0.03665  -0.1148  0.2197  0.1975
   9.250   1.4672   0.04382   0.03801  -0.1143  0.2180  0.2074
   9.500   1.4768   0.04531   0.03952  -0.1139  0.2155  0.2177
   9.750   1.4766   0.04770   0.04196  -0.1131  0.2125  0.2292
  10.000   1.4819   0.04964   0.04391  -0.1126  0.2090  0.2463
  10.250   1.4888   0.05145   0.04576  -0.1123  0.2045  0.2752
  10.500   1.4968   0.05320   0.04758  -0.1120  0.2001  0.3131
  10.750   1.5091   0.05460   0.04905  -0.1119  0.1993  0.3437
  11.000   1.5146   0.05673   0.05126  -0.1117  0.1983  0.3644
  11.250   1.5256   0.05830   0.05287  -0.1116  0.1968  0.3819
  11.500   1.5364   0.05988   0.05448  -0.1115  0.1949  0.3987
  11.750   1.5459   0.06160   0.05624  -0.1115  0.1927  0.4150
  12.000   1.5529   0.06361   0.05827  -0.1114  0.1901  0.4296
