  
       XFOIL         Version 6.94
  
 Calculated polar for: 1080                                            
  
 1 1 Reynolds number fixed          Mach number fixed         
  
 xtrf =   1.000 (top)        1.000 (bottom)  
 Mach =   0.000     Re =     2.000 e 6     Ncrit =   9.000
  
  alpha     CL        CD       CDp       CM    Top_Xtr Bot_Xtr
 ------- -------- --------- --------- -------- ------- -------
   3.000   1.2162   0.00801   0.00311  -0.1509  0.4709  0.4536
   3.250   1.2433   0.00810   0.00319  -0.1510  0.4681  0.4593
   3.500   1.2697   0.00820   0.00328  -0.1510  0.4643  0.4667
   3.750   1.2954   0.00832   0.00339  -0.1509  0.4601  0.4743
   4.000   1.3239   0.00836   0.00346  -0.1513  0.4589  0.4795
   4.250   1.3519   0.00841   0.00353  -0.1516  0.4570  0.4869
   4.500   1.3792   0.00847   0.00361  -0.1518  0.4545  0.4938
   5.000   1.4309   0.00865   0.00382  -0.1518  0.4483  0.5135
   5.250   1.4553   0.00876   0.00395  -0.1515  0.4442  0.5334
   5.500   1.4835   0.00860   0.00419  -0.1523  0.4399  0.7413
   5.750   1.5102   0.00866   0.00430  -0.1525  0.4383  0.7586
   6.000   1.5353   0.00875   0.00443  -0.1523  0.4355  0.7687
   6.250   1.5569   0.00889   0.00457  -0.1515  0.4317  0.7758
   6.500   1.5750   0.00908   0.00473  -0.1500  0.4272  0.7800
   6.750   1.5920   0.00931   0.00496  -0.1483  0.4220  0.7865
   7.000   1.6132   0.00946   0.00513  -0.1474  0.4190  0.7914
   7.250   1.6352   0.00960   0.00529  -0.1468  0.4164  0.7956
   7.500   1.6540   0.00980   0.00550  -0.1455  0.4125  0.7989
   7.750   1.6692   0.01008   0.00577  -0.1436  0.4076  0.8030
   8.000   1.6811   0.01043   0.00612  -0.1412  0.4013  0.8085
   8.250   1.6983   0.01066   0.00637  -0.1398  0.3981  0.8140
   8.500   1.7144   0.01093   0.00665  -0.1382  0.3938  0.8179
   9.000   1.7252   0.01202   0.00773  -0.1317  0.3789  0.8258
   9.250   1.7350   0.01248   0.00821  -0.1294  0.3749  0.8298
   9.500   1.7215   0.01366   0.00939  -0.1237  0.3656  0.8345
   9.750   1.7052   0.01527   0.01102  -0.1185  0.3578  0.8388
  10.000   1.6918   0.01739   0.01321  -0.1147  0.3536  0.8447
  10.250   1.6382   0.02259   0.01848  -0.1084  0.3434  0.8538
  10.750   1.5986   0.02801   0.02403  -0.1009  0.3349  0.8706
  11.250   1.5592   0.03348   0.02961  -0.0940  0.3257  0.8995
  11.500   1.5452   0.03624   0.03255  -0.0916  0.3182  0.9731
