  
       XFOIL         Version 6.94
  
 Calculated polar for: 1080                                            
  
 1 1 Reynolds number fixed          Mach number fixed         
  
 xtrf =   1.000 (top)        1.000 (bottom)  
 Mach =   0.000     Re =     2.000 e 6     Ncrit =   9.000
  
  alpha     CL        CD       CDp       CM    Top_Xtr Bot_Xtr
 ------- -------- --------- --------- -------- ------- -------
   3.000   1.3734   0.00864   0.00374  -0.1772  0.4743  0.4204
   3.250   1.4006   0.00870   0.00382  -0.1775  0.4723  0.4340
   3.500   1.4267   0.00879   0.00391  -0.1775  0.4699  0.4429
   3.750   1.4516   0.00890   0.00402  -0.1774  0.4669  0.4517
   4.000   1.4737   0.00904   0.00415  -0.1767  0.4631  0.4579
   4.250   1.4952   0.00916   0.00426  -0.1759  0.4600  0.4640
   4.500   1.5212   0.00920   0.00434  -0.1759  0.4592  0.4722
   4.750   1.5465   0.00927   0.00443  -0.1759  0.4580  0.4780
   5.000   1.5714   0.00935   0.00453  -0.1758  0.4564  0.4837
   5.250   1.5957   0.00944   0.00464  -0.1756  0.4545  0.4911
   5.500   1.6187   0.00957   0.00478  -0.1752  0.4520  0.4983
   5.750   1.6402   0.00973   0.00495  -0.1745  0.4489  0.5093
   6.250   1.6832   0.00991   0.00551  -0.1737  0.4405  0.7390
   6.500   1.7068   0.01002   0.00568  -0.1734  0.4393  0.7575
   6.750   1.7300   0.01014   0.00585  -0.1731  0.4378  0.7677
   7.000   1.7516   0.01030   0.00603  -0.1726  0.4358  0.7752
   7.250   1.7699   0.01051   0.00625  -0.1714  0.4332  0.7794
   7.500   1.7858   0.01078   0.00653  -0.1699  0.4300  0.7853
   7.750   1.7991   0.01113   0.00689  -0.1680  0.4262  0.7905
   8.000   1.8095   0.01158   0.00733  -0.1656  0.4213  0.7944
   8.250   1.8249   0.01188   0.00766  -0.1642  0.4191  0.7978
   8.500   1.8410   0.01218   0.00799  -0.1629  0.4169  0.8011
   8.750   1.8517   0.01263   0.00847  -0.1608  0.4135  0.8068
   9.000   1.8481   0.01351   0.00937  -0.1567  0.4080  0.8118
   9.250   1.8310   0.01505   0.01093  -0.1511  0.4023  0.8162
   9.500   1.8171   0.01700   0.01295  -0.1470  0.3987  0.8196
   9.750   1.7926   0.02062   0.01666  -0.1435  0.3933  0.8249
  10.000   1.6967   0.02790   0.02403  -0.1328  0.3845  0.8298
  10.250   1.6533   0.03209   0.02828  -0.1273  0.3774  0.8344
  10.500   1.6465   0.03416   0.03037  -0.1251  0.3736  0.8385
  10.750   1.6073   0.03877   0.03497  -0.1207  0.3643  0.8429
  11.000   1.5939   0.04173   0.03799  -0.1185  0.3585  0.8489
  11.250   1.5893   0.04412   0.04038  -0.1170  0.3518  0.8542
  11.500   1.5755   0.04727   0.04349  -0.1151  0.3432  0.8587
  11.750   1.5682   0.05009   0.04637  -0.1137  0.3391  0.8651
  12.000   1.5729   0.05187   0.04818  -0.1130  0.3340  0.8722
