  
       XFOIL         Version 6.94
  
 Calculated polar for: 1080                                            
  
 1 1 Reynolds number fixed          Mach number fixed         
  
 xtrf =   1.000 (top)        1.000 (bottom)  
 Mach =   0.000     Re =     2.000 e 6     Ncrit =   9.000
  
  alpha     CL        CD       CDp       CM    Top_Xtr Bot_Xtr
 ------- -------- --------- --------- -------- ------- -------
   6.000   1.3636   0.01261   0.00881  -0.1332  0.5305  0.7733
   6.500   1.3983   0.01313   0.00934  -0.1318  0.5292  0.7738
   7.000   1.4285   0.01379   0.01002  -0.1298  0.5275  0.7743
   7.500   1.4554   0.01467   0.01090  -0.1275  0.5253  0.7749
   8.000   1.4833   0.01568   0.01193  -0.1256  0.5217  0.7755
   8.500   1.4950   0.01725   0.01357  -0.1215  0.5194  0.7762
   9.000   1.4942   0.01950   0.01589  -0.1163  0.5178  0.7771
   9.500   1.4777   0.02284   0.01932  -0.1097  0.5137  0.7779
  10.000   1.4635   0.02638   0.02288  -0.1039  0.5077  0.7786
  10.500   1.4908   0.02773   0.02420  -0.1028  0.5015  0.7791
  11.000   1.3580   0.03860   0.03515  -0.0849  0.4834  0.7797
  11.500   1.3119   0.04506   0.04164  -0.0770  0.4684  0.7803
  12.000   1.2857   0.05048   0.04705  -0.0716  0.4538  0.7819
   6.000   1.3636   0.01261   0.00881  -0.1332  0.5305  0.7733
   6.500   1.3983   0.01313   0.00934  -0.1318  0.5292  0.7738
   7.000   1.4285   0.01379   0.01002  -0.1298  0.5275  0.7743
   7.500   1.4554   0.01467   0.01090  -0.1275  0.5253  0.7749
   8.000   1.4833   0.01568   0.01193  -0.1256  0.5217  0.7755
   8.500   1.4950   0.01725   0.01357  -0.1215  0.5194  0.7762
   9.000   1.4942   0.01950   0.01589  -0.1163  0.5178  0.7771
   9.500   1.4777   0.02284   0.01932  -0.1097  0.5137  0.7779
  10.000   1.4635   0.02638   0.02288  -0.1039  0.5077  0.7786
  10.500   1.4908   0.02773   0.02420  -0.1028  0.5015  0.7791
  11.000   1.3580   0.03860   0.03515  -0.0849  0.4834  0.7797
  11.500   1.3119   0.04506   0.04164  -0.0770  0.4684  0.7803
  12.000   1.2857   0.05048   0.04705  -0.0716  0.4538  0.7819
