  
       XFOIL         Version 6.94
  
 Calculated polar for: 1080                                            
  
 1 1 Reynolds number fixed          Mach number fixed         
  
 xtrf =   1.000 (top)        1.000 (bottom)  
 Mach =   0.000     Re =     2.000 e 6     Ncrit =   9.000
  
  alpha     CL        CD       CDp       CM    Top_Xtr Bot_Xtr
 ------- -------- --------- --------- -------- ------- -------
   0.000   0.3331   0.00582   0.00188  -0.0600  0.5799  0.7346
   0.500   0.3919   0.00587   0.00193  -0.0609  0.5792  0.7428
   1.000   0.4501   0.00590   0.00201  -0.0617  0.5779  0.7516
   1.500   0.5084   0.00596   0.00206  -0.0625  0.5758  0.7568
   2.000   0.5668   0.00599   0.00209  -0.0635  0.5733  0.7589
   2.500   0.6247   0.00601   0.00210  -0.0643  0.5700  0.7608
   3.000   0.6814   0.00601   0.00211  -0.0650  0.5659  0.7649
   3.500   0.7379   0.00614   0.00222  -0.0656  0.5598  0.7680
   4.000   0.7951   0.00611   0.00225  -0.0663  0.5574  0.7706
   4.500   0.8522   0.00612   0.00229  -0.0671  0.5531  0.7731
   5.000   0.9078   0.00617   0.00235  -0.0675  0.5470  0.7751
   5.500   0.9614   0.00628   0.00245  -0.0677  0.5393  0.7770
   6.000   1.0175   0.00632   0.00253  -0.0683  0.5319  0.7787
   6.500   1.0682   0.00647   0.00266  -0.0678  0.5187  0.7798
   7.000   1.1118   0.00673   0.00284  -0.0660  0.4866  0.7829
   7.500   1.1269   0.00744   0.00332  -0.0586  0.4321  0.7870
   8.000   1.1271   0.00845   0.00413  -0.0484  0.3809  0.7909
   8.500   1.1290   0.00952   0.00503  -0.0392  0.3394  0.7948
   9.000   1.1203   0.01101   0.00637  -0.0289  0.2994  0.7982
   9.500   1.1171   0.01276   0.00803  -0.0208  0.2690  0.8017
  10.000   1.1112   0.01501   0.01021  -0.0132  0.2406  0.8084
  10.500   1.1126   0.01732   0.01249  -0.0073  0.2173  0.8137
  11.000   1.1156   0.01979   0.01490  -0.0022  0.1958  0.8182
  11.500   1.1180   0.02241   0.01749   0.0026  0.1741  0.8245
  12.000   1.1220   0.02507   0.02012   0.0069  0.1536  0.8331
  12.500   1.1325   0.02758   0.02259   0.0102  0.1368  0.8398
  13.000   1.1398   0.03025   0.02524   0.0136  0.1163  0.8529
  13.500   1.1494   0.03292   0.02790   0.0166  0.0998  0.8696
  14.000   1.1629   0.03511   0.03029   0.0195  0.0921  0.9182
  14.500   1.2355   0.03855   0.03381   0.0087  0.0768  0.9611
  15.000   1.3029   0.04276   0.03796  -0.0022  0.0597  0.9807
  16.000   1.3207   0.04863   0.04382   0.0033  0.0498  1.0000
  16.500   1.3375   0.05169   0.04690   0.0041  0.0463  1.0000
  17.000   1.3510   0.05503   0.05024   0.0051  0.0402  1.0000
