  
       XFOIL         Version 6.94
  
 Calculated polar for: 1080                                            
  
 1 1 Reynolds number fixed          Mach number fixed         
  
 xtrf =   1.000 (top)        1.000 (bottom)  
 Mach =   0.000     Re =     2.000 e 6     Ncrit =   9.000
  
  alpha     CL        CD       CDp       CM    Top_Xtr Bot_Xtr
 ------- -------- --------- --------- -------- ------- -------
   0.000   0.3393   0.00555   0.00163  -0.0618  0.5844  0.7400
   0.500   0.3971   0.00569   0.00178  -0.0625  0.5806  0.7517
   1.000   0.4557   0.00578   0.00187  -0.0633  0.5791  0.7589
   1.500   0.5139   0.00576   0.00188  -0.0641  0.5774  0.7662
   2.000   0.5722   0.00577   0.00191  -0.0650  0.5747  0.7698
   2.500   0.6303   0.00579   0.00193  -0.0658  0.5712  0.7728
   3.000   0.6876   0.00583   0.00196  -0.0665  0.5666  0.7753
   3.500   0.7443   0.00596   0.00206  -0.0671  0.5598  0.7772
   4.000   0.8022   0.00594   0.00209  -0.0680  0.5570  0.7786
   4.500   0.8599   0.00597   0.00214  -0.0688  0.5520  0.7798
   5.000   0.9152   0.00601   0.00218  -0.0692  0.5439  0.7827
   5.500   0.9712   0.00605   0.00226  -0.0698  0.5362  0.7857
   6.000   1.0247   0.00616   0.00236  -0.0699  0.5217  0.7882
   6.500   1.0740   0.00640   0.00255  -0.0692  0.4919  0.7906
   7.000   1.1008   0.00733   0.00313  -0.0642  0.4194  0.7936
   7.500   1.1160   0.00829   0.00382  -0.0569  0.3566  0.7969
   8.000   1.1238   0.00918   0.00452  -0.0482  0.3110  0.7994
   8.500   1.1310   0.01016   0.00537  -0.0400  0.2739  0.8045
   9.000   1.1315   0.01143   0.00654  -0.0312  0.2404  0.8103
   9.500   1.1354   0.01295   0.00800  -0.0240  0.2138  0.8154
  10.000   1.1302   0.01523   0.01016  -0.0165  0.1832  0.8197
  10.500   1.1344   0.01743   0.01233  -0.0110  0.1601  0.8288
  11.000   1.1420   0.01970   0.01457  -0.0064  0.1411  0.8367
  11.500   1.1458   0.02228   0.01712  -0.0017  0.1183  0.8465
  12.000   1.1548   0.02469   0.01951   0.0021  0.1022  0.8588
  12.500   1.1697   0.02680   0.02171   0.0052  0.0923  0.8795
  13.500   1.2581   0.03253   0.02759  -0.0031  0.0600  0.9999
  14.000   1.2779   0.03522   0.03030  -0.0020  0.0548  1.0000
  14.500   1.2945   0.03805   0.03311  -0.0005  0.0487  1.0000
  15.000   1.3113   0.04094   0.03598   0.0007  0.0433  1.0000
  15.500   1.3296   0.04379   0.03887   0.0018  0.0390  1.0000
  16.000   1.3481   0.04659   0.04170   0.0028  0.0355  1.0000
  16.500   1.3609   0.04991   0.04505   0.0039  0.0307  1.0000
  17.000   1.3798   0.05275   0.04795   0.0047  0.0294  1.0000
