  
       XFOIL         Version 6.94
  
 Calculated polar for: 1080                                            
  
 1 1 Reynolds number fixed          Mach number fixed         
  
 xtrf =   1.000 (top)        1.000 (bottom)  
 Mach =   0.000     Re =     2.000 e 6     Ncrit =   9.000
  
  alpha     CL        CD       CDp       CM    Top_Xtr Bot_Xtr
 ------- -------- --------- --------- -------- ------- -------
   6.000   0.3998   0.04545   0.04207  -0.0017  0.4868  0.7589
   6.500   0.4536   0.04575   0.04234  -0.0039  0.4851  0.7597
   7.000   0.5083   0.04587   0.04240  -0.0063  0.4827  0.7597
   7.500   0.4594   0.05216   0.04872   0.0026  0.4700  0.7598
   8.000   0.5094   0.05260   0.04911   0.0006  0.4675  0.7599
   8.500   0.5612   0.05291   0.04936  -0.0016  0.4645  0.7599
   9.000   0.6166   0.05297   0.04938  -0.0043  0.4610  0.7600
   9.500   0.6310   0.05559   0.05201  -0.0026  0.4564  0.7605
  10.000   0.6536   0.05774   0.05413  -0.0020  0.4501  0.7613
  10.500   0.6974   0.05852   0.05486  -0.0037  0.4457  0.7621
  11.000   0.7547   0.05841   0.05470  -0.0068  0.4424  0.7627
  11.500   0.7226   0.06436   0.06071  -0.0008  0.4314  0.7634
  12.000   0.7637   0.06536   0.06165  -0.0024  0.4268  0.7641
