  
       XFOIL         Version 6.94
  
 Calculated polar for: 1080                                            
  
 1 1 Reynolds number fixed          Mach number fixed         
  
 xtrf =   1.000 (top)        1.000 (bottom)  
 Mach =   0.000     Re =     2.000 e 6     Ncrit =   9.000
  
  alpha     CL        CD       CDp       CM    Top_Xtr Bot_Xtr
 ------- -------- --------- --------- -------- ------- -------
   0.000   0.3173   0.00611   0.00214  -0.0557  0.5776  0.7185
   0.500   0.3751   0.00615   0.00221  -0.0565  0.5763  0.7274
   1.000   0.4329   0.00624   0.00232  -0.0573  0.5746  0.7347
   1.500   0.4906   0.00630   0.00237  -0.0581  0.5723  0.7384
   2.000   0.5480   0.00636   0.00241  -0.0589  0.5700  0.7400
   2.500   0.6040   0.00634   0.00239  -0.0595  0.5672  0.7446
   3.000   0.6597   0.00644   0.00249  -0.0600  0.5626  0.7479
   3.500   0.7163   0.00654   0.00260  -0.0608  0.5594  0.7504
   4.000   0.7713   0.00653   0.00262  -0.0611  0.5575  0.7531
   4.500   0.8257   0.00653   0.00265  -0.0614  0.5542  0.7554
   5.000   0.8790   0.00656   0.00270  -0.0615  0.5499  0.7575
   5.500   0.9280   0.00664   0.00277  -0.0607  0.5441  0.7591
   6.000   0.9744   0.00671   0.00285  -0.0594  0.5388  0.7612
   6.500   1.0228   0.00669   0.00290  -0.0585  0.5338  0.7655
   7.000   1.0651   0.00681   0.00304  -0.0565  0.5248  0.7686
   7.500   1.1064   0.00699   0.00323  -0.0543  0.5129  0.7710
   8.000   1.1378   0.00732   0.00354  -0.0502  0.4945  0.7737
   8.500   1.1426   0.00816   0.00422  -0.0414  0.4558  0.7766
   9.000   1.1276   0.00959   0.00548  -0.0298  0.4159  0.7789
   9.500   1.1140   0.01139   0.00718  -0.0196  0.3839  0.7819
  10.000   1.0965   0.01377   0.00949  -0.0099  0.3519  0.7874
  10.500   1.0724   0.01689   0.01252  -0.0005  0.3206  0.7921
  11.000   1.0608   0.01987   0.01544   0.0066  0.2947  0.7956
  11.500   1.0557   0.02278   0.01828   0.0123  0.2714  0.7985
  12.000   1.0466   0.02614   0.02155   0.0178  0.2454  0.8016
  12.500   1.0467   0.02910   0.02446   0.0221  0.2219  0.8077
  13.000   1.0566   0.03165   0.02697   0.0252  0.2026  0.8125
  13.500   1.0673   0.03436   0.02963   0.0278  0.1861  0.8168
  14.500   1.0964   0.03940   0.03464   0.0319  0.1552  0.8290
  15.000   1.1116   0.04196   0.03716   0.0336  0.1389  0.8366
  15.500   1.1229   0.04494   0.04014   0.0354  0.1262  0.8464
  16.000   1.1414   0.04734   0.04256   0.0366  0.1134  0.8592
  16.500   1.1486   0.05044   0.04574   0.0388  0.0995  0.8883
  17.000   1.2001   0.05430   0.04978   0.0312  0.0883  0.9457
