  
       XFOIL         Version 6.94
  
 Calculated polar for: 1080                                            
  
 1 1 Reynolds number fixed          Mach number fixed         
  
 xtrf =   1.000 (top)        1.000 (bottom)  
 Mach =   0.000     Re =     2.000 e 6     Ncrit =   9.000
  
  alpha     CL        CD       CDp       CM    Top_Xtr Bot_Xtr
 ------- -------- --------- --------- -------- ------- -------
   6.000   0.9334   0.01199   0.00820  -0.0527  0.5350  0.7567
   6.500   0.9666   0.01252   0.00874  -0.0508  0.5331  0.7574
   7.000   1.0010   0.01306   0.00930  -0.0493  0.5309  0.7583
   7.500   1.0310   0.01377   0.01001  -0.0472  0.5284  0.7590
   8.000   1.0571   0.01466   0.01088  -0.0446  0.5248  0.7595
   8.500   1.0986   0.01517   0.01138  -0.0444  0.5200  0.7599
   9.000   1.1034   0.01680   0.01307  -0.0391  0.5184  0.7618
   9.500   1.1088   0.01866   0.01500  -0.0343  0.5147  0.7639
  10.000   1.1162   0.02062   0.01699  -0.0301  0.5088  0.7657
  10.500   1.1315   0.02222   0.01855  -0.0269  0.5001  0.7673
  11.000   1.0789   0.02722   0.02365  -0.0159  0.4894  0.7690
  11.500   1.0206   0.03280   0.02922  -0.0049  0.4704  0.7704
