  
       XFOIL         Version 6.94
  
 Calculated polar for: 1080                                            
  
 1 1 Reynolds number fixed          Mach number fixed         
  
 xtrf =   1.000 (top)        1.000 (bottom)  
 Mach =   0.000     Re =     2.000 e 6     Ncrit =   9.000
  
  alpha     CL        CD       CDp       CM    Top_Xtr Bot_Xtr
 ------- -------- --------- --------- -------- ------- -------
   0.000   0.2908   0.00642   0.00241  -0.0492  0.5738  0.6999
   0.500   0.3464   0.00646   0.00250  -0.0497  0.5723  0.7102
   1.000   0.4024   0.00655   0.00259  -0.0503  0.5706  0.7168
   1.500   0.4573   0.00663   0.00264  -0.0506  0.5686  0.7196
   2.000   0.5107   0.00665   0.00266  -0.0508  0.5658  0.7245
   2.500   0.5661   0.00678   0.00279  -0.0514  0.5622  0.7283
   3.000   0.6222   0.00692   0.00294  -0.0521  0.5597  0.7313
   3.500   0.6700   0.00690   0.00294  -0.0511  0.5585  0.7344
   4.000   0.7154   0.00689   0.00296  -0.0495  0.5567  0.7371
   4.500   0.7630   0.00693   0.00301  -0.0485  0.5542  0.7390
   5.000   0.8093   0.00699   0.00309  -0.0473  0.5510  0.7409
   5.500   0.8525   0.00705   0.00316  -0.0455  0.5468  0.7455
   6.000   0.8955   0.00725   0.00335  -0.0438  0.5405  0.7484
   6.500   0.9413   0.00733   0.00349  -0.0426  0.5380  0.7509
   7.000   0.9863   0.00745   0.00367  -0.0414  0.5338  0.7535
   7.500   1.0259   0.00764   0.00387  -0.0392  0.5269  0.7559
   8.000   1.0579   0.00799   0.00421  -0.0357  0.5189  0.7581
   8.500   1.0951   0.00831   0.00456  -0.0334  0.5086  0.7596
   9.000   1.1166   0.00890   0.00514  -0.0284  0.4943  0.7640
   9.500   1.1013   0.01049   0.00664  -0.0177  0.4629  0.7682
  10.000   1.0810   0.01270   0.00877  -0.0073  0.4340  0.7718
  10.500   1.0479   0.01581   0.01179   0.0039  0.4048  0.7750
  11.000   1.0219   0.01913   0.01505   0.0131  0.3796  0.7776
  11.500   1.0043   0.02246   0.01832   0.0205  0.3559  0.7794
  12.000   0.9892   0.02592   0.02170   0.0269  0.3307  0.7825
  12.500   0.9759   0.02945   0.02517   0.0327  0.3047  0.7875
  13.000   0.9744   0.03259   0.02826   0.0368  0.2830  0.7912
  13.500   0.9833   0.03524   0.03085   0.0397  0.2635  0.7941
  14.000   0.9911   0.03810   0.03364   0.0423  0.2443  0.7967
  14.500   0.9999   0.04099   0.03645   0.0446  0.2232  0.7989
  15.000   1.0127   0.04376   0.03916   0.0464  0.2059  0.8019
  15.500   1.0310   0.04611   0.04149   0.0476  0.1899  0.8075
  16.000   1.0438   0.04904   0.04443   0.0490  0.1766  0.8121
  16.500   1.0602   0.05172   0.04706   0.0500  0.1613  0.8164
  17.000   1.0827   0.05406   0.04940   0.0504  0.1520  0.8198
