  
       XFOIL         Version 6.94
  
 Calculated polar for: 1080                                            
  
 1 1 Reynolds number fixed          Mach number fixed         
  
 xtrf =   1.000 (top)        1.000 (bottom)  
 Mach =   0.000     Re =     2.000 e 6     Ncrit =   9.000
  
  alpha     CL        CD       CDp       CM    Top_Xtr Bot_Xtr
 ------- -------- --------- --------- -------- ------- -------
   6.000   0.8098   0.01401   0.01026  -0.0330  0.5322  0.7526
   6.500   0.8432   0.01467   0.01092  -0.0315  0.5302  0.7536
   7.000   0.8692   0.01558   0.01184  -0.0290  0.5278  0.7546
   7.500   0.8963   0.01650   0.01274  -0.0268  0.5240  0.7555
   8.000   0.9320   0.01720   0.01344  -0.0260  0.5198  0.7564
   8.500   0.9220   0.01961   0.01592  -0.0191  0.5175  0.7576
   9.000   0.9191   0.02200   0.01835  -0.0136  0.5125  0.7585
   9.500   0.9261   0.02409   0.02043  -0.0096  0.5065  0.7591
  10.000   0.9692   0.02458   0.02087  -0.0101  0.5002  0.7596
  10.500   0.8925   0.03077   0.02713   0.0036  0.4871  0.7604
  11.000   0.8677   0.03472   0.03109   0.0105  0.4736  0.7624
  11.500   0.8602   0.03799   0.03429   0.0152  0.4588  0.7642
  12.000   0.8350   0.04239   0.03865   0.0215  0.4419  0.7658
