  
       XFOIL         Version 6.94
  
 Calculated polar for: 1080                                            
  
 1 1 Reynolds number fixed          Mach number fixed         
  
 xtrf =   1.000 (top)        1.000 (bottom)  
 Mach =   0.000     Re =     2.000 e 6     Ncrit =   9.000
  
  alpha     CL        CD       CDp       CM    Top_Xtr Bot_Xtr
 ------- -------- --------- --------- -------- ------- -------
   7.000   1.5009   0.00963   0.00578  -0.1396  0.5337  0.7796
   7.250   1.5235   0.00969   0.00585  -0.1393  0.5327  0.7798
   7.500   1.5449   0.00976   0.00593  -0.1388  0.5317  0.7799
   7.750   1.5652   0.00983   0.00602  -0.1381  0.5307  0.7805
   8.000   1.5856   0.00991   0.00611  -0.1375  0.5297  0.7814
   8.250   1.6055   0.00999   0.00622  -0.1368  0.5284  0.7824
   8.500   1.6227   0.01012   0.00636  -0.1356  0.5269  0.7834
   8.750   1.6393   0.01030   0.00654  -0.1344  0.5250  0.7844
   9.000   1.6575   0.01051   0.00676  -0.1335  0.5224  0.7853
   9.250   1.6774   0.01075   0.00701  -0.1330  0.5199  0.7862
   9.500   1.6928   0.01093   0.00724  -0.1317  0.5193  0.7871
   9.750   1.7085   0.01114   0.00750  -0.1305  0.5185  0.7880
  10.000   1.7234   0.01140   0.00780  -0.1291  0.5173  0.7888
