  
       XFOIL         Version 6.94
  
 Calculated polar for: 1080                                            
  
 1 1 Reynolds number fixed          Mach number fixed         
  
 xtrf =   1.000 (top)        1.000 (bottom)  
 Mach =   0.000     Re =     2.000 e 6     Ncrit =   9.000
  
  alpha     CL        CD       CDp       CM    Top_Xtr Bot_Xtr
 ------- -------- --------- --------- -------- ------- -------
   0.500   0.7288   0.00697   0.00296  -0.1212  0.5585  0.7429
   1.000   0.7864   0.00709   0.00310  -0.1221  0.5579  0.7573
   1.500   0.8433   0.00723   0.00327  -0.1228  0.5571  0.7691
   2.000   0.8997   0.00739   0.00345  -0.1235  0.5560  0.7772
   2.500   0.9563   0.00748   0.00354  -0.1243  0.5546  0.7793
   3.000   1.0128   0.00752   0.00356  -0.1252  0.5531  0.7796
   3.500   1.0688   0.00756   0.00359  -0.1261  0.5515  0.7798
   4.000   1.1240   0.00759   0.00363  -0.1268  0.5498  0.7800
   4.500   1.1778   0.00759   0.00362  -0.1273  0.5477  0.7811
   5.000   1.2302   0.00765   0.00368  -0.1275  0.5445  0.7823
   5.500   1.2854   0.00791   0.00394  -0.1285  0.5403  0.7835
   6.000   1.3360   0.00790   0.00397  -0.1284  0.5392  0.7852
   6.500   1.3806   0.00785   0.00397  -0.1269  0.5375  0.7868
   7.000   1.4261   0.00786   0.00404  -0.1258  0.5347  0.7882
   7.500   1.4723   0.00790   0.00413  -0.1249  0.5311  0.7896
   8.000   1.5144   0.00801   0.00426  -0.1232  0.5264  0.7911
   8.500   1.5534   0.00827   0.00453  -0.1210  0.5199  0.7927
   9.000   1.5988   0.00837   0.00473  -0.1202  0.5164  0.7943
   9.500   1.6403   0.00857   0.00495  -0.1187  0.5078  0.7959
  10.000   1.6703   0.00897   0.00537  -0.1151  0.4970  0.7975
  10.500   1.6822   0.00980   0.00617  -0.1085  0.4749  0.7991
  11.000   1.6607   0.01171   0.00799  -0.0969  0.4468  0.8025
  11.500   1.6073   0.01565   0.01191  -0.0826  0.4189  0.8087
  12.000   1.5453   0.02150   0.01777  -0.0700  0.3937  0.8136
  12.500   1.4764   0.02841   0.02466  -0.0583  0.3690  0.8176
  13.500   1.4009   0.04022   0.03639  -0.0443  0.3206  0.8272
  14.000   1.3993   0.04408   0.04021  -0.0412  0.2995  0.8330
  14.500   1.3943   0.04850   0.04458  -0.0382  0.2784  0.8380
  15.000   1.4024   0.05194   0.04797  -0.0365  0.2587  0.8453
  15.500   1.4002   0.05643   0.05245  -0.0344  0.2378  0.8544
  16.000   1.4068   0.06023   0.05618  -0.0329  0.2128  0.8658
  16.500   1.4107   0.06438   0.06037  -0.0316  0.1969  0.8844
  17.000   1.4296   0.06828   0.06446  -0.0329  0.1786  0.9687
