  
       XFOIL         Version 6.94
  
 Calculated polar for: 1080                                            
  
 1 1 Reynolds number fixed          Mach number fixed         
  
 xtrf =   1.000 (top)        1.000 (bottom)  
 Mach =   0.000     Re =     2.000 e 6     Ncrit =   9.000
  
  alpha     CL        CD       CDp       CM    Top_Xtr Bot_Xtr
 ------- -------- --------- --------- -------- ------- -------
   6.000   1.0427   0.01058   0.00674  -0.0712  0.5367  0.7597
   6.500   1.0781   0.01093   0.00711  -0.0693  0.5351  0.7602
   7.000   1.1129   0.01127   0.00747  -0.0674  0.5330  0.7623
   7.500   1.1474   0.01169   0.00791  -0.0656  0.5307  0.7640
   8.000   1.1781   0.01226   0.00850  -0.0633  0.5281  0.7656
   8.500   1.2057   0.01300   0.00924  -0.0607  0.5242  0.7670
   9.000   1.2414   0.01364   0.00989  -0.0595  0.5197  0.7682
   9.500   1.2572   0.01488   0.01120  -0.0555  0.5178  0.7696
  10.000   1.2698   0.01639   0.01279  -0.0514  0.5138  0.7709
  10.500   1.2760   0.01830   0.01472  -0.0466  0.5069  0.7723
  11.000   1.2718   0.02075   0.01718  -0.0409  0.4983  0.7737
  11.500   1.2364   0.02488   0.02133  -0.0317  0.4844  0.7752
  12.000   1.1580   0.03142   0.02782  -0.0182  0.4597  0.7767
