  
       XFOIL         Version 6.94
  
 Calculated polar for: 1080                                            
  
 1 1 Reynolds number fixed          Mach number fixed         
  
 xtrf =   1.000 (top)        1.000 (bottom)  
 Mach =   0.000     Re =     2.000 e 6     Ncrit =   9.000
  
  alpha     CL        CD       CDp       CM    Top_Xtr Bot_Xtr
 ------- -------- --------- --------- -------- ------- -------
   6.000   0.6729   0.01668   0.01294  -0.0121  0.5287  0.7482
   6.500   0.6963   0.01776   0.01402  -0.0095  0.5257  0.7493
   7.000   0.7338   0.01841   0.01465  -0.0090  0.5219  0.7503
   7.500   0.7330   0.02046   0.01675  -0.0034  0.5188  0.7515
   8.000   0.6985   0.02409   0.02045   0.0061  0.5133  0.7528
   8.500   0.7085   0.02612   0.02247   0.0097  0.5079  0.7538
   9.000   0.7495   0.02678   0.02310   0.0093  0.5031  0.7547
  10.000   0.7139   0.03368   0.03000   0.0223  0.4833  0.7571
  10.500   0.6862   0.03793   0.03427   0.0294  0.4709  0.7579
  11.000   0.7229   0.03893   0.03518   0.0291  0.4617  0.7585
  11.500   0.7020   0.04308   0.03935   0.0349  0.4492  0.7591
  12.000   0.7400   0.04405   0.04023   0.0343  0.4399  0.7595
