  
       XFOIL         Version 6.94
  
 Calculated polar for: 1080                                            
  
 1 1 Reynolds number fixed          Mach number fixed         
  
 xtrf =   1.000 (top)        1.000 (bottom)  
 Mach =   0.000     Re =     2.000 e 6     Ncrit =   9.000
  
  alpha     CL        CD       CDp       CM    Top_Xtr Bot_Xtr
 ------- -------- --------- --------- -------- ------- -------
   7.000   1.5603   0.00904   0.00519  -0.1516  0.5343  0.7869
   7.250   1.5833   0.00909   0.00525  -0.1513  0.5334  0.7875
   7.500   1.6059   0.00913   0.00531  -0.1510  0.5322  0.7881
   7.750   1.6272   0.00917   0.00537  -0.1503  0.5310  0.7887
   8.000   1.6482   0.00921   0.00544  -0.1497  0.5297  0.7894
   8.250   1.6690   0.00926   0.00551  -0.1490  0.5281  0.7900
   8.500   1.6889   0.00935   0.00560  -0.1482  0.5262  0.7907
   8.750   1.7082   0.00948   0.00574  -0.1473  0.5239  0.7914
   9.000   1.7288   0.00967   0.00594  -0.1467  0.5209  0.7921
   9.250   1.7479   0.00980   0.00610  -0.1459  0.5196  0.7928
   9.500   1.7667   0.00990   0.00625  -0.1450  0.5187  0.7935
   9.750   1.7864   0.01001   0.00640  -0.1443  0.5175  0.7943
  10.000   1.8051   0.01016   0.00659  -0.1434  0.5158  0.7951
