  
       XFOIL         Version 6.94
  
 Calculated polar for: 1080                                            
  
 1 1 Reynolds number fixed          Mach number fixed         
  
 xtrf =   1.000 (top)        1.000 (bottom)  
 Mach =   0.000     Re =     2.000 e 6     Ncrit =   9.000
  
  alpha     CL        CD       CDp       CM    Top_Xtr Bot_Xtr
 ------- -------- --------- --------- -------- ------- -------
   0.000   0.3053   0.00623   0.00228  -0.0527  0.5758  0.7107
   0.500   0.3630   0.00633   0.00237  -0.0535  0.5744  0.7183
   1.000   0.4199   0.00638   0.00243  -0.0542  0.5727  0.7259
   1.500   0.4764   0.00642   0.00248  -0.0549  0.5705  0.7302
   2.000   0.5322   0.00647   0.00253  -0.0554  0.5681  0.7336
   2.500   0.5874   0.00656   0.00260  -0.0559  0.5651  0.7364
   3.000   0.6446   0.00677   0.00277  -0.0568  0.5604  0.7386
   3.500   0.6988   0.00679   0.00281  -0.0571  0.5590  0.7400
   4.000   0.7514   0.00672   0.00279  -0.0570  0.5573  0.7444
   4.500   0.8018   0.00671   0.00281  -0.0565  0.5544  0.7478
   5.000   0.8475   0.00670   0.00283  -0.0550  0.5507  0.7505
   5.500   0.8916   0.00676   0.00290  -0.0532  0.5459  0.7529
   6.000   0.9361   0.00694   0.00306  -0.0517  0.5397  0.7555
   6.500   0.9839   0.00700   0.00318  -0.0508  0.5367  0.7575
   7.000   1.0295   0.00712   0.00333  -0.0495  0.5307  0.7592
   7.500   1.0649   0.00735   0.00354  -0.0463  0.5208  0.7618
   8.000   1.1089   0.00749   0.00375  -0.0449  0.5126  0.7661
   8.500   1.1311   0.00796   0.00418  -0.0395  0.4918  0.7692
   9.000   1.1286   0.00903   0.00515  -0.0301  0.4614  0.7725
   9.500   1.1166   0.01066   0.00668  -0.0199  0.4300  0.7756
  10.000   1.0881   0.01327   0.00917  -0.0084  0.3967  0.7783
  10.500   1.0676   0.01610   0.01192   0.0008  0.3689  0.7800
  11.000   1.0383   0.01965   0.01539   0.0102  0.3388  0.7856
  11.500   1.0263   0.02279   0.01850   0.0168  0.3154  0.7901
  12.000   1.0168   0.02607   0.02170   0.0226  0.2905  0.7937
  12.500   1.0154   0.02910   0.02468   0.0270  0.2687  0.7966
  13.000   1.0161   0.03218   0.02767   0.0309  0.2460  0.7990
  13.500   1.0234   0.03497   0.03037   0.0339  0.2235  0.8024
  14.000   1.0299   0.03792   0.03328   0.0367  0.2036  0.8081
  14.500   1.0487   0.04017   0.03552   0.0383  0.1888  0.8127
  15.000   1.0620   0.04295   0.03827   0.0400  0.1744  0.8169
  16.000   1.0972   0.04791   0.04320   0.0425  0.1476  0.8292
  16.500   1.1106   0.05089   0.04620   0.0437  0.1351  0.8367
  17.000   1.1246   0.05377   0.04904   0.0448  0.1191  0.8469
