  
       XFOIL         Version 6.94
  
 Calculated polar for: 1080                                            
  
 1 1 Reynolds number fixed          Mach number fixed         
  
 xtrf =   1.000 (top)        1.000 (bottom)  
 Mach =   0.000     Re =     2.000 e 6     Ncrit =   9.000
  
  alpha     CL        CD       CDp       CM    Top_Xtr Bot_Xtr
 ------- -------- --------- --------- -------- ------- -------
   7.000   1.3547   0.00856   0.00473  -0.1111  0.5356  0.7783
   7.250   1.3771   0.00860   0.00479  -0.1107  0.5343  0.7786
   7.500   1.3995   0.00865   0.00485  -0.1102  0.5328  0.7789
   7.750   1.4216   0.00869   0.00491  -0.1097  0.5312  0.7792
   8.000   1.4420   0.00877   0.00500  -0.1089  0.5295  0.7795
   8.250   1.4606   0.00887   0.00511  -0.1078  0.5275  0.7798
   8.500   1.4772   0.00901   0.00525  -0.1063  0.5248  0.7802
   8.750   1.4936   0.00920   0.00543  -0.1049  0.5212  0.7817
   9.000   1.5129   0.00933   0.00559  -0.1040  0.5195  0.7832
   9.250   1.5326   0.00945   0.00576  -0.1033  0.5184  0.7845
   9.500   1.5514   0.00959   0.00594  -0.1024  0.5166  0.7856
   9.750   1.5703   0.00975   0.00614  -0.1015  0.5143  0.7867
  10.000   1.5880   0.00994   0.00636  -0.1005  0.5111  0.7877
