  
       XFOIL         Version 6.94
  
 Calculated polar for: 1080                                            
  
 1 1 Reynolds number fixed          Mach number fixed         
  
 xtrf =   1.000 (top)        1.000 (bottom)  
 Mach =   0.000     Re =     2.000 e 6     Ncrit =   9.000
  
  alpha     CL        CD       CDp       CM    Top_Xtr Bot_Xtr
 ------- -------- --------- --------- -------- ------- -------
   0.000   0.6868   0.00822   0.00284  -0.1233  0.5596  0.2154
   0.500   0.7401   0.00682   0.00279  -0.1246  0.5592  0.7376
   1.000   0.7981   0.00690   0.00290  -0.1255  0.5587  0.7551
   1.500   0.8555   0.00703   0.00306  -0.1263  0.5580  0.7708
   2.000   0.9125   0.00722   0.00326  -0.1270  0.5570  0.7802
   2.500   0.9692   0.00720   0.00325  -0.1278  0.5556  0.7857
   3.000   1.0263   0.00724   0.00328  -0.1288  0.5542  0.7863
   3.500   1.0831   0.00728   0.00332  -0.1298  0.5526  0.7870
   4.000   1.1392   0.00730   0.00335  -0.1306  0.5506  0.7878
   4.500   1.1943   0.00731   0.00336  -0.1312  0.5483  0.7887
   5.000   1.2484   0.00738   0.00343  -0.1318  0.5454  0.7896
   5.500   1.3031   0.00761   0.00365  -0.1325  0.5407  0.7906
   6.000   1.3562   0.00761   0.00371  -0.1329  0.5390  0.7916
   6.500   1.4083   0.00760   0.00375  -0.1330  0.5369  0.7928
   7.000   1.4597   0.00761   0.00381  -0.1331  0.5335  0.7940
   7.500   1.5070   0.00764   0.00388  -0.1323  0.5292  0.7954
   8.000   1.5466   0.00776   0.00400  -0.1300  0.5229  0.7968
   8.500   1.5929   0.00789   0.00420  -0.1291  0.5178  0.7980
   9.000   1.6377   0.00803   0.00439  -0.1281  0.5098  0.7991
   9.500   1.6716   0.00835   0.00470  -0.1249  0.4959  0.8002
  10.000   1.6839   0.00910   0.00536  -0.1178  0.4650  0.8048
  10.500   1.6667   0.01067   0.00682  -0.1059  0.4296  0.8095
  11.000   1.6326   0.01329   0.00940  -0.0928  0.4017  0.8143
  11.500   1.5896   0.01761   0.01371  -0.0812  0.3771  0.8184
  12.000   1.5336   0.02376   0.01987  -0.0703  0.3524  0.8246
  12.500   1.4791   0.03018   0.02631  -0.0607  0.3291  0.8325
  13.000   1.4486   0.03569   0.03177  -0.0543  0.3060  0.8383
  13.500   1.4333   0.04050   0.03656  -0.0499  0.2838  0.8461
  14.000   1.4295   0.04463   0.04062  -0.0467  0.2581  0.8554
  14.500   1.4221   0.04933   0.04527  -0.0437  0.2321  0.8676
  15.000   1.4298   0.05276   0.04870  -0.0418  0.2121  0.8877
  15.500   1.4405   0.05726   0.05337  -0.0422  0.1921  0.9742
  16.000   1.4500   0.06078   0.05683  -0.0408  0.1730  1.0000
  16.500   1.4443   0.06618   0.06209  -0.0394  0.1457  1.0000
  17.000   1.4473   0.07087   0.06663  -0.0387  0.1188  1.0000
