  
       XFOIL         Version 6.94
  
 Calculated polar for: 1080                                            
  
 1 1 Reynolds number fixed          Mach number fixed         
  
 xtrf =   1.000 (top)        1.000 (bottom)  
 Mach =   0.000     Re =     2.000 e 6     Ncrit =   9.000
  
  alpha     CL        CD       CDp       CM    Top_Xtr Bot_Xtr
 ------- -------- --------- --------- -------- ------- -------
   6.000   0.6574   0.03535   0.03191  -0.0348  0.5053  0.7638
   6.500   0.7071   0.03568   0.03220  -0.0363  0.5026  0.7639
   7.000   0.6006   0.04478   0.04137  -0.0208  0.4872  0.7653
   7.500   0.6535   0.04502   0.04157  -0.0229  0.4849  0.7654
   8.000   0.7080   0.04513   0.04163  -0.0252  0.4821  0.7656
   9.500   0.7634   0.05215   0.04858  -0.0211  0.4624  0.7668
  10.000   0.8342   0.05122   0.04761  -0.0254  0.4619  0.7671
  10.500   0.8079   0.05657   0.05302  -0.0197  0.4515  0.7677
  11.000   0.8502   0.05745   0.05383  -0.0211  0.4461  0.7682
  11.500   0.9011   0.05770   0.05403  -0.0235  0.4409  0.7688
  12.000   0.8615   0.06436   0.06076  -0.0170  0.4292  0.7693
