  
       XFOIL         Version 6.94
  
 Calculated polar for: 1080                                            
  
 1 1 Reynolds number fixed          Mach number fixed         
  
 xtrf =   1.000 (top)        1.000 (bottom)  
 Mach =   0.000     Re =     2.000 e 6     Ncrit =   9.000
  
  alpha     CL        CD       CDp       CM    Top_Xtr Bot_Xtr
 ------- -------- --------- --------- -------- ------- -------
   0.000   0.6101   0.00738   0.00345  -0.1047  0.5562  0.7376
   0.500   0.6645   0.00748   0.00354  -0.1051  0.5553  0.7431
   1.000   0.7154   0.00757   0.00363  -0.1048  0.5543  0.7490
   1.500   0.7667   0.00777   0.00385  -0.1045  0.5533  0.7566
   2.000   0.8176   0.00791   0.00399  -0.1042  0.5522  0.7630
   2.500   0.8685   0.00796   0.00405  -0.1041  0.5509  0.7659
   3.000   0.9180   0.00802   0.00409  -0.1038  0.5494  0.7666
   3.500   0.9662   0.00809   0.00416  -0.1032  0.5478  0.7674
   4.000   1.0149   0.00821   0.00427  -0.1029  0.5460  0.7682
   4.500   1.0642   0.00840   0.00445  -0.1027  0.5435  0.7690
   5.000   1.1193   0.00878   0.00483  -0.1040  0.5400  0.7698
   5.500   1.1627   0.00882   0.00490  -0.1026  0.5394  0.7707
   6.000   1.2070   0.00888   0.00500  -0.1016  0.5385  0.7717
   6.500   1.2494   0.00899   0.00514  -0.1002  0.5371  0.7727
   7.000   1.2912   0.00914   0.00532  -0.0989  0.5353  0.7737
   7.500   1.3317   0.00931   0.00552  -0.0974  0.5330  0.7747
   8.000   1.3711   0.00951   0.00575  -0.0958  0.5301  0.7757
   8.500   1.4043   0.00984   0.00610  -0.0932  0.5263  0.7767
   9.000   1.4371   0.01034   0.00658  -0.0908  0.5204  0.7777
   9.500   1.4682   0.01083   0.00715  -0.0882  0.5182  0.7786
  10.000   1.4994   0.01143   0.00781  -0.0858  0.5142  0.7794
  10.500   1.5233   0.01228   0.00869  -0.0825  0.5074  0.7805
  11.000   1.5273   0.01386   0.01030  -0.0765  0.4985  0.7842
  11.500   1.5331   0.01569   0.01218  -0.0713  0.4872  0.7870
  12.000   1.4520   0.02161   0.01807  -0.0556  0.4618  0.7903
  12.500   1.3646   0.02876   0.02518  -0.0410  0.4344  0.7930
  13.000   1.3059   0.03514   0.03153  -0.0310  0.4109  0.7951
  13.500   1.2793   0.04008   0.03642  -0.0249  0.3921  0.7969
  14.000   1.2608   0.04483   0.04115  -0.0202  0.3734  0.7984
  14.500   1.2658   0.04811   0.04438  -0.0178  0.3566  0.7995
  15.000   1.2555   0.05272   0.04895  -0.0145  0.3390  0.8018
  16.000   1.2838   0.05849   0.05467  -0.0122  0.3083  0.8093
  16.500   1.2843   0.06267   0.05886  -0.0105  0.2934  0.8123
  17.000   1.2986   0.06576   0.06192  -0.0099  0.2777  0.8154
