  
       XFOIL         Version 6.94
  
 Calculated polar for: 1080                                            
  
 1 1 Reynolds number fixed          Mach number fixed         
  
 xtrf =   1.000 (top)        1.000 (bottom)  
 Mach =   0.000     Re =     2.000 e 6     Ncrit =   9.000
  
  alpha     CL        CD       CDp       CM    Top_Xtr Bot_Xtr
 ------- -------- --------- --------- -------- ------- -------
   0.000   1.1166   0.01792   0.01351  -0.1914  0.5343  0.0079
   0.500   1.1698   0.01656   0.01190  -0.1921  0.5336  0.0079
   1.000   1.2192   0.01566   0.01080  -0.1922  0.5329  0.0079
   1.500   1.2648   0.01502   0.01003  -0.1917  0.5322  0.0079
   2.000   1.3094   0.01459   0.00953  -0.1912  0.5315  0.0079
   2.500   1.3526   0.01431   0.00922  -0.1905  0.5308  0.0080
