  
       XFOIL         Version 6.94
  
 Calculated polar for: 1080                                            
  
 1 1 Reynolds number fixed          Mach number fixed         
  
 xtrf =   1.000 (top)        1.000 (bottom)  
 Mach =   0.000     Re =     2.000 e 6     Ncrit =   9.000
  
  alpha     CL        CD       CDp       CM    Top_Xtr Bot_Xtr
 ------- -------- --------- --------- -------- ------- -------
   0.000   1.0045   0.01190   0.00656  -0.1804  0.5489  0.0080
   2.000   1.2262   0.00959   0.00418  -0.1834  0.5443  0.0114
   2.500   1.2836   0.00973   0.00431  -0.1849  0.5421  0.0131
   3.000   1.3392   0.01009   0.00467  -0.1861  0.5399  0.0140
   3.500   1.4148   0.00909   0.00499  -0.1925  0.5396  0.7681
   4.000   1.4682   0.00922   0.00515  -0.1931  0.5392  0.7793
   4.500   1.5204   0.00932   0.00530  -0.1934  0.5386  0.7910
   5.000   1.5730   0.00939   0.00539  -0.1940  0.5379  0.7914
   5.500   1.6245   0.00947   0.00550  -0.1945  0.5371  0.7920
   6.000   1.6747   0.00955   0.00561  -0.1947  0.5360  0.7927
   6.500   1.7200   0.00956   0.00566  -0.1939  0.5344  0.7936
   7.000   1.7656   0.00961   0.00574  -0.1932  0.5327  0.7945
   7.500   1.8118   0.00968   0.00585  -0.1927  0.5309  0.7955
   8.000   1.8556   0.00977   0.00598  -0.1919  0.5290  0.7966
   8.500   1.8975   0.00989   0.00614  -0.1907  0.5264  0.7976
   9.000   1.9377   0.01018   0.00645  -0.1893  0.5220  0.7986
   9.500   1.9786   0.01044   0.00678  -0.1882  0.5194  0.7995
  10.000   2.0188   0.01040   0.00683  -0.1869  0.5146  0.8016
  10.500   2.0521   0.01065   0.00712  -0.1844  0.5060  0.8055
  11.000   2.0773   0.01125   0.00777  -0.1807  0.4971  0.8088
  11.500   2.0836   0.01245   0.00900  -0.1741  0.4813  0.8122
  12.000   2.0383   0.01602   0.01257  -0.1607  0.4591  0.8162
  12.500   1.9296   0.02557   0.02222  -0.1440  0.4414  0.8196
  13.000   1.7703   0.03963   0.03634  -0.1248  0.4163  0.8261
  13.500   1.7190   0.04761   0.04432  -0.1177  0.3952  0.8306
  14.000   1.6823   0.05505   0.05171  -0.1126  0.3714  0.8344
  14.500   1.6547   0.06226   0.05889  -0.1088  0.3492  0.8377
  15.500   1.6353   0.07414   0.07066  -0.1049  0.3039  0.8479
  16.000   1.6233   0.08059   0.07691  -0.1033  0.2652  0.8537
  16.500   1.6095   0.08773   0.08397  -0.1021  0.2378  0.8587
  17.000   1.5877   0.09588   0.09179  -0.1010  0.1851  0.8658
