  
       XFOIL         Version 6.94
  
 Calculated polar for: 1080                                            
  
 1 1 Reynolds number fixed          Mach number fixed         
  
 xtrf =   1.000 (top)        1.000 (bottom)  
 Mach =   0.000     Re =     2.000 e 6     Ncrit =   9.000
  
  alpha     CL        CD       CDp       CM    Top_Xtr Bot_Xtr
 ------- -------- --------- --------- -------- ------- -------
   0.000   0.8985   0.01096   0.00530  -0.1526  0.5410  0.0128
   0.500   0.9472   0.01106   0.00541  -0.1524  0.5399  0.0126
   1.000   0.9963   0.01099   0.00534  -0.1522  0.5396  0.0124
   1.500   1.0459   0.01101   0.00533  -0.1522  0.5394  0.0126
   2.000   1.0961   0.01089   0.00541  -0.1525  0.5391  0.0948
   2.500   1.1604   0.00967   0.00564  -0.1571  0.5386  0.7398
   3.000   1.2054   0.00991   0.00594  -0.1562  0.5381  0.7568
   3.500   1.2502   0.01018   0.00626  -0.1553  0.5375  0.7691
   4.000   1.2948   0.01043   0.00655  -0.1545  0.5366  0.7759
   4.500   1.3395   0.01060   0.00672  -0.1540  0.5356  0.7760
   5.000   1.3818   0.01083   0.00696  -0.1531  0.5346  0.7762
   5.500   1.4248   0.01105   0.00719  -0.1524  0.5335  0.7764
   6.000   1.4650   0.01133   0.00748  -0.1514  0.5323  0.7768
   6.500   1.5056   0.01160   0.00777  -0.1505  0.5310  0.7771
   7.000   1.5438   0.01194   0.00813  -0.1493  0.5296  0.7776
   7.500   1.5779   0.01239   0.00859  -0.1476  0.5281  0.7781
   8.000   1.6089   0.01296   0.00918  -0.1455  0.5258  0.7786
   8.500   1.6409   0.01370   0.00992  -0.1438  0.5222  0.7791
   9.000   1.6668   0.01467   0.01094  -0.1413  0.5197  0.7795
   9.500   1.6846   0.01582   0.01218  -0.1379  0.5185  0.7800
  10.000   1.6941   0.01750   0.01394  -0.1337  0.5163  0.7821
  10.500   1.6996   0.01966   0.01617  -0.1295  0.5127  0.7843
  11.000   1.6908   0.02277   0.01934  -0.1240  0.5066  0.7864
  12.000   1.4989   0.04024   0.03694  -0.0958  0.4725  0.7903
  12.500   1.4624   0.04627   0.04294  -0.0893  0.4548  0.7917
  13.000   1.4332   0.05216   0.04878  -0.0839  0.4375  0.7929
  13.500   1.4432   0.05537   0.05196  -0.0823  0.4261  0.7942
  14.000   1.4267   0.06088   0.05750  -0.0788  0.4128  0.7953
  14.500   1.4452   0.06354   0.06008  -0.0782  0.4003  0.7966
  15.000   1.4705   0.06585   0.06245  -0.0784  0.3943  0.7978
  15.500   1.4513   0.07211   0.06868  -0.0754  0.3789  0.7987
  16.000   1.4792   0.07422   0.07084  -0.0760  0.3719  0.7996
  16.500   1.4965   0.07723   0.07380  -0.0759  0.3594  0.8018
  17.000   1.5205   0.07971   0.07635  -0.0765  0.3524  0.8056
