  
       XFOIL         Version 6.94
  
 Calculated polar for: 1080                                            
  
 1 1 Reynolds number fixed          Mach number fixed         
  
 xtrf =   1.000 (top)        1.000 (bottom)  
 Mach =   0.000     Re =     2.000 e 6     Ncrit =   9.000
  
  alpha     CL        CD       CDp       CM    Top_Xtr Bot_Xtr
 ------- -------- --------- --------- -------- ------- -------
   0.000   0.6365   0.00718   0.00323  -0.1111  0.5573  0.7357
   0.500   0.6929   0.00732   0.00338  -0.1119  0.5566  0.7478
   1.000   0.7489   0.00744   0.00350  -0.1125  0.5556  0.7531
   1.500   0.8046   0.00767   0.00372  -0.1131  0.5547  0.7596
   2.000   0.8584   0.00775   0.00384  -0.1134  0.5535  0.7682
   2.500   0.9117   0.00782   0.00391  -0.1137  0.5522  0.7706
   3.000   0.9612   0.00782   0.00389  -0.1132  0.5506  0.7713
   3.500   1.0105   0.00784   0.00391  -0.1128  0.5492  0.7721
   4.000   1.0596   0.00790   0.00396  -0.1123  0.5476  0.7728
   4.500   1.1086   0.00802   0.00408  -0.1120  0.5455  0.7736
   5.000   1.1601   0.00824   0.00429  -0.1123  0.5422  0.7743
   5.500   1.2110   0.00846   0.00452  -0.1124  0.5397  0.7751
   6.000   1.2557   0.00850   0.00460  -0.1113  0.5388  0.7759
   6.500   1.2991   0.00858   0.00472  -0.1100  0.5376  0.7767
   7.000   1.3435   0.00866   0.00483  -0.1089  0.5356  0.7775
   7.500   1.3882   0.00876   0.00496  -0.1080  0.5329  0.7782
   8.000   1.4285   0.00890   0.00513  -0.1063  0.5297  0.7789
   8.500   1.4639   0.00915   0.00539  -0.1039  0.5253  0.7796
   9.000   1.4994   0.00952   0.00577  -0.1016  0.5197  0.7806
   9.500   1.5357   0.00981   0.00615  -0.0996  0.5170  0.7837
  10.000   1.5710   0.01019   0.00660  -0.0976  0.5118  0.7861
  10.500   1.5870   0.01107   0.00748  -0.0925  0.5026  0.7885
  11.000   1.6096   0.01199   0.00848  -0.0889  0.4942  0.7906
  11.500   1.5942   0.01432   0.01080  -0.0800  0.4759  0.7932
  12.000   1.5257   0.01959   0.01603  -0.0655  0.4491  0.7960
  12.500   1.4099   0.02831   0.02468  -0.0477  0.4182  0.7985
  13.000   1.3569   0.03458   0.03092  -0.0383  0.3959  0.7999
  13.500   1.3309   0.03958   0.03590  -0.0324  0.3764  0.8038
  14.000   1.3241   0.04354   0.03983  -0.0287  0.3570  0.8077
  14.500   1.3142   0.04797   0.04422  -0.0251  0.3371  0.8109
  15.000   1.3122   0.05202   0.04824  -0.0225  0.3192  0.8139
  15.500   1.3167   0.05577   0.05193  -0.0206  0.3014  0.8167
  16.000   1.3275   0.05908   0.05518  -0.0195  0.2827  0.8190
  16.500   1.3310   0.06317   0.05927  -0.0181  0.2678  0.8229
  17.000   1.3452   0.06632   0.06241  -0.0175  0.2507  0.8289
