  
       XFOIL         Version 6.94
  
 Calculated polar for: 1080                                            
  
 1 1 Reynolds number fixed          Mach number fixed         
  
 xtrf =   1.000 (top)        1.000 (bottom)  
 Mach =   0.000     Re =     2.000 e 6     Ncrit =   9.000
  
  alpha     CL        CD       CDp       CM    Top_Xtr Bot_Xtr
 ------- -------- --------- --------- -------- ------- -------
   7.000   1.6095   0.00861   0.00477  -0.1622  0.5345  0.7934
   7.250   1.6321   0.00862   0.00480  -0.1617  0.5332  0.7940
   7.500   1.6548   0.00864   0.00483  -0.1613  0.5318  0.7946
   7.750   1.6776   0.00865   0.00488  -0.1608  0.5304  0.7952
   8.000   1.6994   0.00869   0.00493  -0.1602  0.5287  0.7958
   8.250   1.7196   0.00874   0.00499  -0.1593  0.5267  0.7964
   8.500   1.7390   0.00884   0.00509  -0.1583  0.5242  0.7970
   8.750   1.7598   0.00900   0.00526  -0.1576  0.5210  0.7976
   9.000   1.7817   0.00909   0.00538  -0.1572  0.5195  0.7981
   9.250   1.8027   0.00915   0.00549  -0.1565  0.5186  0.7987
   9.500   1.8241   0.00922   0.00560  -0.1560  0.5172  0.7991
   9.750   1.8461   0.00930   0.00572  -0.1556  0.5151  0.7996
  10.000   1.8678   0.00938   0.00585  -0.1552  0.5125  0.8000
