  
       XFOIL         Version 6.94
  
 Calculated polar for: 1080                                            
  
 1 1 Reynolds number fixed          Mach number fixed         
  
 xtrf =   1.000 (top)        1.000 (bottom)  
 Mach =   0.000     Re =     2.000 e 6     Ncrit =   9.000
  
  alpha     CL        CD       CDp       CM    Top_Xtr Bot_Xtr
 ------- -------- --------- --------- -------- ------- -------
   6.000   1.0714   0.01900   0.01530  -0.0878  0.5226  0.7663
   6.500   0.9930   0.02466   0.02111  -0.0730  0.5182  0.7677
   7.000   0.8994   0.03212   0.02867  -0.0579  0.5093  0.7687
   7.500   0.9376   0.03310   0.02961  -0.0582  0.5065  0.7689
   8.000   0.9868   0.03344   0.02991  -0.0597  0.5034  0.7692
   8.500   0.8769   0.04286   0.03942  -0.0440  0.4876  0.7700
   9.000   0.9286   0.04314   0.03965  -0.0460  0.4846  0.7704
   9.500   0.9869   0.04297   0.03944  -0.0488  0.4815  0.7708
  10.000   0.9371   0.04954   0.04605  -0.0404  0.4682  0.7714
  10.500   0.9846   0.05003   0.04648  -0.0422  0.4633  0.7719
  11.000   0.9515   0.05597   0.05246  -0.0360  0.4501  0.7726
  11.500   0.9914   0.05699   0.05341  -0.0371  0.4439  0.7732
  12.000   1.0307   0.05804   0.05445  -0.0383  0.4390  0.7738
