  
       XFOIL         Version 6.94
  
 Calculated polar for: 1080                                            
  
 1 1 Reynolds number fixed          Mach number fixed         
  
 xtrf =   1.000 (top)        1.000 (bottom)  
 Mach =   0.000     Re =     2.000 e 6     Ncrit =   9.000
  
  alpha     CL        CD       CDp       CM    Top_Xtr Bot_Xtr
 ------- -------- --------- --------- -------- ------- -------
   0.000   0.3261   0.00594   0.00200  -0.0580  0.5790  0.7270
   0.500   0.3846   0.00602   0.00209  -0.0589  0.5780  0.7356
   1.000   0.4429   0.00609   0.00216  -0.0598  0.5764  0.7419
   1.500   0.5007   0.00609   0.00219  -0.0606  0.5741  0.7481
   2.000   0.5586   0.00613   0.00222  -0.0614  0.5717  0.7510
   2.500   0.6159   0.00616   0.00225  -0.0622  0.5688  0.7538
   3.000   0.6722   0.00624   0.00231  -0.0628  0.5645  0.7562
   3.500   0.7291   0.00638   0.00243  -0.0636  0.5597  0.7581
   4.000   0.7856   0.00637   0.00246  -0.0642  0.5575  0.7596
   4.500   0.8416   0.00633   0.00246  -0.0648  0.5538  0.7627
   5.000   0.8964   0.00634   0.00250  -0.0651  0.5488  0.7663
   5.500   0.9475   0.00645   0.00259  -0.0648  0.5415  0.7692
   6.000   1.0020   0.00649   0.00269  -0.0651  0.5367  0.7714
   6.500   1.0538   0.00655   0.00278  -0.0649  0.5277  0.7736
   7.000   1.0990   0.00668   0.00291  -0.0634  0.5160  0.7760
   7.500   1.1318   0.00692   0.00309  -0.0593  0.4919  0.7780
   8.000   1.1327   0.00784   0.00377  -0.0492  0.4409  0.7797
   8.500   1.1336   0.00884   0.00462  -0.0398  0.4008  0.7842
   9.000   1.1263   0.01017   0.00585  -0.0296  0.3642  0.7889
   9.500   1.1133   0.01208   0.00765  -0.0197  0.3289  0.7933
  10.000   1.0997   0.01455   0.01001  -0.0109  0.2978  0.7970
  10.500   1.0881   0.01736   0.01272  -0.0033  0.2681  0.7997
  11.000   1.0787   0.02031   0.01561   0.0033  0.2419  0.8058
  11.500   1.0793   0.02297   0.01823   0.0083  0.2198  0.8112
  12.000   1.0838   0.02564   0.02087   0.0125  0.1994  0.8159
  12.500   1.0912   0.02832   0.02349   0.0159  0.1803  0.8196
  13.000   1.0966   0.03116   0.02629   0.0194  0.1586  0.8279
  13.500   1.1079   0.03379   0.02889   0.0221  0.1420  0.8357
  14.000   1.1238   0.03622   0.03130   0.0241  0.1287  0.8442
  14.500   1.1363   0.03890   0.03399   0.0263  0.1135  0.8570
  15.000   1.1501   0.04144   0.03657   0.0284  0.0999  0.8782
  15.500   1.1863   0.04441   0.03978   0.0253  0.0890  0.9475
  16.000   1.2596   0.04866   0.04404   0.0132  0.0768  0.9573
  16.500   1.3192   0.05330   0.04862   0.0032  0.0610  0.9779
