  
       XFOIL         Version 6.94
  
 Calculated polar for: 1080                                            
  
 1 1 Reynolds number fixed          Mach number fixed         
  
 xtrf =   1.000 (top)        1.000 (bottom)  
 Mach =   0.000     Re =     2.000 e 6     Ncrit =   9.000
  
  alpha     CL        CD       CDp       CM    Top_Xtr Bot_Xtr
 ------- -------- --------- --------- -------- ------- -------
   0.000   0.9342   0.00003  -0.00494  -0.1595  0.5425  0.0115
   0.500   0.9858   0.00004  -0.00492  -0.1604  0.5400  0.0130
   1.000   1.0397   0.00003  -0.00494  -0.1615  0.5398  0.0130
   1.500   1.0934   0.00003  -0.00495  -0.1627  0.5395  0.0134
   2.000   1.1452   0.00003  -0.00495  -0.1635  0.5391  0.0134
   2.500   1.2407   0.00001  -0.00364  -0.1749  0.5385  0.7478
   3.000   1.2886   0.00002  -0.00360  -0.1748  0.5378  0.7662
   3.500   1.3304   0.00002  -0.00354  -0.1735  0.5370  0.7784
   4.000   1.3713   0.00002  -0.00352  -0.1722  0.5361  0.7796
   4.500   1.4139   0.00002  -0.00350  -0.1715  0.5350  0.7797
   5.000   1.4562   0.00003  -0.00348  -0.1707  0.5336  0.7797
   5.500   1.4974   0.00003  -0.00345  -0.1699  0.5322  0.7799
   6.000   1.5383   0.00003  -0.00343  -0.1692  0.5305  0.7801
   6.500   1.5785   0.00004  -0.00340  -0.1684  0.5286  0.7810
   7.000   1.6120   0.00005  -0.00336  -0.1666  0.5263  0.7822
   7.500   1.6438   0.00007  -0.00332  -0.1647  0.5223  0.7834
   8.000   1.6742   0.00010  -0.00322  -0.1628  0.5196  0.7847
   8.500   1.6944   0.00016  -0.00305  -0.1594  0.5183  0.7861
   9.000   1.7093   0.00027  -0.00284  -0.1556  0.5154  0.7874
   9.500   1.7207   0.00049  -0.00252  -0.1519  0.5111  0.7888
  10.000   1.7051   0.00126  -0.00172  -0.1453  0.5026  0.7902
  10.500   1.6254   0.00517   0.00234  -0.1331  0.4900  0.7916
  11.000   1.4239   0.02360   0.02074  -0.1122  0.4481  0.7915
  11.500   1.3842   0.03328   0.03040  -0.1074  0.4271  0.7915
  12.000   1.3535   0.04256   0.03970  -0.1042  0.4080  0.7912
  12.500   1.3596   0.04731   0.04451  -0.1041  0.3941  0.7907
  13.000   1.3389   0.05385   0.05108  -0.1023  0.3771  0.7905
  13.500   1.3544   0.05668   0.05389  -0.1023  0.3642  0.7910
  14.000   1.3751   0.05898   0.05624  -0.1026  0.3552  0.7917
  14.500   1.3634   0.06428   0.06154  -0.1016  0.3389  0.7921
  15.000   1.3848   0.06634   0.06364  -0.1021  0.3288  0.7930
  15.500   1.3786   0.07105   0.06835  -0.1016  0.3107  0.7935
  16.000   1.3846   0.07452   0.07181  -0.1018  0.2941  0.7943
  16.500   1.3918   0.07783   0.07510  -0.1021  0.2801  0.7951
  17.000   1.3818   0.08294   0.08019  -0.1021  0.2591  0.7957
   0.000   0.3394   0.00556   0.00159  -0.0619  0.5867  0.7432
   0.500   0.3979   0.00563   0.00165  -0.0627  0.5847  0.7531
   1.000   0.4561   0.00574   0.00173  -0.0634  0.5819  0.7614
   1.500   0.5142   0.00581   0.00182  -0.0642  0.5789  0.7680
   2.000   0.5726   0.00584   0.00185  -0.0651  0.5757  0.7714
   2.500   0.6304   0.00585   0.00186  -0.0659  0.5721  0.7745
   3.000   0.6881   0.00590   0.00193  -0.0666  0.5679  0.7770
   3.500   0.7459   0.00591   0.00196  -0.0675  0.5632  0.7793
   4.000   0.8029   0.00598   0.00202  -0.0682  0.5582  0.7814
   4.500   0.8604   0.00599   0.00207  -0.0690  0.5527  0.7834
   5.000   0.9168   0.00604   0.00215  -0.0696  0.5460  0.7855
   5.500   0.9726   0.00611   0.00225  -0.0701  0.5372  0.7878
   6.000   1.0277   0.00621   0.00236  -0.0705  0.5230  0.7900
   6.500   1.0777   0.00648   0.00255  -0.0699  0.4929  0.7923
   7.000   1.1093   0.00736   0.00313  -0.0659  0.4235  0.7953
   7.500   1.1335   0.00834   0.00384  -0.0606  0.3612  0.7985
   8.000   1.1452   0.00926   0.00454  -0.0528  0.3120  0.8022
   8.500   1.1541   0.01031   0.00543  -0.0448  0.2702  0.8064
   9.000   1.1602   0.01158   0.00658  -0.0371  0.2345  0.8112
   9.500   1.1641   0.01322   0.00813  -0.0300  0.2044  0.8163
  10.000   1.1716   0.01515   0.01001  -0.0244  0.1802  0.8220
  10.500   1.1777   0.01747   0.01227  -0.0193  0.1562  0.8284
  11.000   1.1876   0.01983   0.01459  -0.0152  0.1368  0.8357
  11.500   1.1976   0.02230   0.01703  -0.0114  0.1182  0.8444
  12.000   1.2072   0.02486   0.01957  -0.0079  0.1010  0.8553
  12.500   1.2182   0.02739   0.02212  -0.0046  0.0864  0.8716
  13.000   1.2299   0.02975   0.02460  -0.0013  0.0751  0.9088
  13.500   1.2925   0.03290   0.02787  -0.0097  0.0614  0.9760
  15.000   1.3417   0.04095   0.03593  -0.0042  0.0435  1.0000
  15.500   1.3604   0.04380   0.03880  -0.0031  0.0392  1.0000
  16.000   1.3775   0.04684   0.04187  -0.0022  0.0354  1.0000
  16.500   1.3944   0.04996   0.04502  -0.0014  0.0320  1.0000
  17.000   1.4088   0.05336   0.04845  -0.0006  0.0282  1.0000
