  
       XFOIL         Version 6.94
  
 Calculated polar for: 1080                                            
  
 1 1 Reynolds number fixed          Mach number fixed         
  
 xtrf =   1.000 (top)        1.000 (bottom)  
 Mach =   0.000     Re =     2.000 e 6     Ncrit =   9.000
  
  alpha     CL        CD       CDp       CM    Top_Xtr Bot_Xtr
 ------- -------- --------- --------- -------- ------- -------
   6.000   1.2363   0.01490   0.01115  -0.1124  0.5281  0.7699
   6.500   1.2606   0.01594   0.01219  -0.1100  0.5262  0.7704
   7.000   1.2841   0.01711   0.01337  -0.1076  0.5229  0.7709
   7.500   1.2798   0.01947   0.01580  -0.1017  0.5196  0.7716
   8.000   1.2286   0.02422   0.02067  -0.0907  0.5165  0.7725
   8.500   1.1953   0.02873   0.02524  -0.0826  0.5102  0.7733
   9.000   1.2204   0.03035   0.02684  -0.0815  0.5062  0.7739
   9.500   1.2650   0.03087   0.02732  -0.0825  0.5018  0.7745
  10.000   1.1350   0.04158   0.03811  -0.0649  0.4834  0.7756
  10.500   1.0890   0.04803   0.04458  -0.0570  0.4691  0.7763
  11.000   1.1307   0.04886   0.04536  -0.0581  0.4628  0.7769
  11.500   1.1485   0.05136   0.04787  -0.0570  0.4564  0.7774
  12.000   1.1398   0.05575   0.05219  -0.0534  0.4418  0.7780
