  
       XFOIL         Version 6.94
  
 Calculated polar for: 1080                                            
  
 1 1 Reynolds number fixed          Mach number fixed         
  
 xtrf =   1.000 (top)        1.000 (bottom)  
 Mach =   0.000     Re =     2.000 e 6     Ncrit =   9.000
  
  alpha     CL        CD       CDp       CM    Top_Xtr Bot_Xtr
 ------- -------- --------- --------- -------- ------- -------
   0.000   0.6944   0.00857   0.00273  -0.1256  0.5605  0.0128
   0.500   0.7505   0.00830   0.00268  -0.1263  0.5598  0.1058
   1.000   0.8065   0.00675   0.00273  -0.1283  0.5594  0.7514
   1.500   0.8644   0.00684   0.00284  -0.1292  0.5588  0.7694
   2.000   0.9212   0.00695   0.00298  -0.1298  0.5579  0.7862
   2.500   0.9781   0.00702   0.00307  -0.1305  0.5566  0.7920
   3.000   1.0356   0.00705   0.00310  -0.1315  0.5552  0.7927
   3.500   1.0927   0.00708   0.00314  -0.1325  0.5535  0.7934
   4.000   1.1493   0.00709   0.00314  -0.1334  0.5512  0.7941
   4.500   1.2054   0.00711   0.00317  -0.1342  0.5488  0.7949
   5.000   1.2604   0.00716   0.00322  -0.1348  0.5457  0.7957
   5.500   1.3153   0.00739   0.00343  -0.1356  0.5401  0.7966
   6.000   1.3698   0.00735   0.00346  -0.1361  0.5386  0.7975
   6.500   1.4239   0.00735   0.00351  -0.1367  0.5359  0.7984
   7.000   1.4776   0.00738   0.00358  -0.1372  0.5320  0.7992
   7.500   1.5282   0.00745   0.00368  -0.1370  0.5258  0.7999
   8.000   1.5766   0.00757   0.00384  -0.1366  0.5188  0.8022
   8.500   1.6261   0.00764   0.00398  -0.1363  0.5098  0.8051
   9.000   1.6596   0.00789   0.00421  -0.1328  0.4905  0.8081
   9.500   1.6707   0.00873   0.00490  -0.1250  0.4522  0.8116
  10.000   1.6665   0.01003   0.00606  -0.1149  0.4139  0.8153
  10.500   1.6449   0.01193   0.00784  -0.1026  0.3806  0.8190
  11.000   1.6128   0.01491   0.01081  -0.0906  0.3518  0.8263
  11.500   1.5631   0.02037   0.01629  -0.0796  0.3256  0.8349
  12.500   1.4812   0.03198   0.02791  -0.0631  0.2793  0.8534
  13.000   1.4616   0.03695   0.03285  -0.0580  0.2539  0.8657
  13.500   1.4484   0.04173   0.03761  -0.0539  0.2285  0.8850
  14.000   1.4556   0.04542   0.04144  -0.0522  0.2063  0.9715
  14.500   1.4531   0.04998   0.04592  -0.0499  0.1829  1.0000
  15.000   1.4538   0.05439   0.05017  -0.0481  0.1516  1.0000
  15.500   1.4610   0.05858   0.05434  -0.0470  0.1365  1.0000
  16.000   1.4603   0.06348   0.05905  -0.0457  0.1065  1.0000
  16.500   1.4650   0.06824   0.06376  -0.0451  0.0900  1.0000
  17.000   1.4759   0.07241   0.06788  -0.0448  0.0742  1.0000
