  
       XFOIL         Version 6.94
  
 Calculated polar for: 1080                                            
  
 1 1 Reynolds number fixed          Mach number fixed         
  
 xtrf =   1.000 (top)        1.000 (bottom)  
 Mach =   0.000     Re =     2.000 e 6     Ncrit =   9.000
  
  alpha     CL        CD       CDp       CM    Top_Xtr Bot_Xtr
 ------- -------- --------- --------- -------- ------- -------
   7.000   1.4529   0.00767   0.00386  -0.1316  0.5338  0.7926
   7.250   1.4757   0.00767   0.00389  -0.1310  0.5319  0.7933
   7.500   1.4980   0.00768   0.00392  -0.1303  0.5298  0.7940
   7.750   1.5195   0.00772   0.00397  -0.1295  0.5272  0.7947
   8.000   1.5396   0.00781   0.00406  -0.1285  0.5241  0.7954
   8.250   1.5593   0.00794   0.00419  -0.1274  0.5199  0.7962
   8.500   1.5830   0.00798   0.00428  -0.1271  0.5186  0.7968
   8.750   1.6069   0.00803   0.00437  -0.1268  0.5160  0.7975
   9.000   1.6294   0.00810   0.00446  -0.1263  0.5120  0.7981
   9.250   1.6481   0.00822   0.00458  -0.1251  0.5063  0.7987
   9.500   1.6610   0.00842   0.00477  -0.1227  0.4991  0.7993
   9.750   1.6798   0.00858   0.00494  -0.1216  0.4913  0.7998
  10.000   1.6866   0.00895   0.00527  -0.1182  0.4779  0.8014
