  
       XFOIL         Version 6.94
  
 Calculated polar for: 1080                                            
  
 1 1 Reynolds number fixed          Mach number fixed         
  
 xtrf =   1.000 (top)        1.000 (bottom)  
 Mach =   0.000     Re =     2.000 e 6     Ncrit =   9.000
  
  alpha     CL        CD       CDp       CM    Top_Xtr Bot_Xtr
 ------- -------- --------- --------- -------- ------- -------
   0.000   0.6559   0.00701   0.00304  -0.1162  0.5583  0.7318
   0.500   0.7136   0.00712   0.00314  -0.1171  0.5576  0.7448
   1.000   0.7705   0.00728   0.00332  -0.1178  0.5568  0.7567
   1.500   0.8270   0.00741   0.00345  -0.1186  0.5560  0.7648
   2.000   0.8824   0.00758   0.00366  -0.1191  0.5548  0.7730
   2.500   0.9379   0.00765   0.00373  -0.1198  0.5534  0.7756
   3.000   0.9931   0.00767   0.00374  -0.1205  0.5518  0.7761
   3.500   1.0476   0.00771   0.00377  -0.1211  0.5503  0.7766
   4.000   1.1008   0.00775   0.00381  -0.1214  0.5488  0.7771
   4.500   1.1505   0.00780   0.00384  -0.1211  0.5468  0.7776
   5.000   1.1986   0.00790   0.00394  -0.1205  0.5436  0.7782
   5.500   1.2530   0.00818   0.00421  -0.1214  0.5399  0.7786
   6.000   1.2986   0.00818   0.00426  -0.1202  0.5391  0.7791
   6.500   1.3434   0.00822   0.00434  -0.1190  0.5377  0.7796
   7.000   1.3882   0.00827   0.00443  -0.1179  0.5354  0.7801
   7.500   1.4327   0.00831   0.00452  -0.1168  0.5324  0.7823
   8.000   1.4750   0.00839   0.00463  -0.1153  0.5284  0.7848
   8.500   1.5131   0.00861   0.00486  -0.1131  0.5229  0.7868
   9.000   1.5530   0.00885   0.00516  -0.1114  0.5188  0.7886
   9.500   1.5957   0.00904   0.00543  -0.1104  0.5147  0.7902
  10.000   1.6272   0.00942   0.00583  -0.1073  0.5061  0.7921
  10.500   1.6506   0.01005   0.00649  -0.1030  0.4957  0.7941
  11.000   1.6528   0.01134   0.00777  -0.0956  0.4784  0.7964
  11.500   1.6207   0.01421   0.01059  -0.0840  0.4532  0.7986
  12.000   1.5376   0.02046   0.01680  -0.0680  0.4246  0.8019
  12.500   1.4502   0.02800   0.02434  -0.0537  0.3980  0.8078
  13.000   1.4011   0.03417   0.03050  -0.0449  0.3753  0.8117
  13.500   1.3765   0.03924   0.03554  -0.0393  0.3548  0.8150
  14.000   1.3701   0.04331   0.03955  -0.0356  0.3337  0.8178
  14.500   1.3603   0.04792   0.04410  -0.0322  0.3129  0.8198
  15.000   1.3654   0.05147   0.04760  -0.0301  0.2928  0.8258
  15.500   1.3638   0.05579   0.05192  -0.0279  0.2746  0.8313
  16.000   1.3749   0.05914   0.05521  -0.0268  0.2552  0.8366
  17.000   1.3853   0.06721   0.06322  -0.0245  0.2173  0.8519
