  
       XFOIL         Version 6.94
  
 Calculated polar for: 1080                                            
  
 1 1 Reynolds number fixed          Mach number fixed         
  
 xtrf =   1.000 (top)        1.000 (bottom)  
 Mach =   0.000     Re =     2.000 e 6     Ncrit =   9.000
  
  alpha     CL        CD       CDp       CM    Top_Xtr Bot_Xtr
 ------- -------- --------- --------- -------- ------- -------
   6.000   1.1325   0.00953   0.00565  -0.0874  0.5378  0.7663
   6.500   1.1716   0.00972   0.00589  -0.0858  0.5364  0.7674
   7.000   1.2103   0.00996   0.00615  -0.0841  0.5344  0.7685
   7.500   1.2475   0.01026   0.00648  -0.0824  0.5322  0.7696
   8.000   1.2827   0.01062   0.00687  -0.0804  0.5297  0.7708
   8.500   1.3122   0.01115   0.00741  -0.0776  0.5261  0.7720
   9.000   1.3473   0.01171   0.00796  -0.0760  0.5205  0.7732
   9.500   1.3714   0.01252   0.00884  -0.0727  0.5184  0.7744
  10.000   1.3945   0.01349   0.00988  -0.0696  0.5151  0.7757
  10.500   1.4146   0.01467   0.01110  -0.0662  0.5092  0.7769
  11.000   1.4076   0.01696   0.01338  -0.0594  0.4993  0.7781
  11.500   1.4147   0.01900   0.01549  -0.0550  0.4911  0.7791
  12.000   1.3509   0.02442   0.02089  -0.0422  0.4705  0.7805
   6.000   1.1325   0.00953   0.00565  -0.0874  0.5378  0.7663
   6.500   1.1716   0.00972   0.00589  -0.0858  0.5364  0.7674
   7.000   1.2103   0.00996   0.00615  -0.0841  0.5344  0.7685
   7.500   1.2475   0.01026   0.00648  -0.0824  0.5322  0.7696
   8.000   1.2827   0.01062   0.00687  -0.0804  0.5297  0.7708
   8.500   1.3122   0.01115   0.00741  -0.0776  0.5261  0.7720
   9.000   1.3473   0.01171   0.00796  -0.0760  0.5205  0.7732
   9.500   1.3714   0.01252   0.00884  -0.0727  0.5184  0.7744
  10.000   1.3945   0.01349   0.00988  -0.0696  0.5151  0.7757
  10.500   1.4146   0.01467   0.01110  -0.0662  0.5092  0.7769
  11.000   1.4076   0.01696   0.01338  -0.0594  0.4993  0.7781
  11.500   1.4147   0.01900   0.01549  -0.0550  0.4911  0.7791
  12.000   1.3509   0.02442   0.02089  -0.0422  0.4705  0.7805
