  
       XFOIL         Version 6.94
  
 Calculated polar for: 1080                                            
  
 1 1 Reynolds number fixed          Mach number fixed         
  
 xtrf =   1.000 (top)        1.000 (bottom)  
 Mach =   0.000     Re =     2.000 e 6     Ncrit =   9.000
  
  alpha     CL        CD       CDp       CM    Top_Xtr Bot_Xtr
 ------- -------- --------- --------- -------- ------- -------
   7.000   1.4080   0.00803   0.00420  -0.1220  0.5351  0.7848
   7.250   1.4304   0.00806   0.00426  -0.1214  0.5335  0.7857
   7.500   1.4530   0.00808   0.00430  -0.1209  0.5317  0.7866
   7.750   1.4755   0.00812   0.00436  -0.1204  0.5299  0.7874
   8.000   1.4956   0.00819   0.00443  -0.1194  0.5275  0.7882
   8.250   1.5138   0.00829   0.00454  -0.1180  0.5248  0.7890
   8.500   1.5325   0.00843   0.00469  -0.1169  0.5212  0.7899
   8.750   1.5547   0.00853   0.00481  -0.1164  0.5194  0.7906
   9.000   1.5776   0.00859   0.00492  -0.1161  0.5180  0.7914
   9.250   1.6005   0.00866   0.00503  -0.1158  0.5157  0.7922
   9.500   1.6207   0.00877   0.00516  -0.1150  0.5121  0.7930
   9.750   1.6364   0.00893   0.00533  -0.1134  0.5071  0.7940
  10.000   1.6440   0.00926   0.00564  -0.1103  0.5004  0.7950
