  
       XFOIL         Version 6.94
  
 Calculated polar for: 1080                                            
  
 1 1 Reynolds number fixed          Mach number fixed         
  
 xtrf =   1.000 (top)        1.000 (bottom)  
 Mach =   0.000     Re =     2.000 e 6     Ncrit =   9.000
  
  alpha     CL        CD       CDp       CM    Top_Xtr Bot_Xtr
 ------- -------- --------- --------- -------- ------- -------
   6.000   1.0198   0.01327   0.00622  -0.0958  0.0023  0.6122
   6.250   1.0408   0.01352   0.00646  -0.0947  0.0022  0.6183
   6.500   1.0614   0.01377   0.00673  -0.0935  0.0021  0.6254
   7.000   1.1007   0.01433   0.00731  -0.0908  0.0016  0.6385
   7.250   1.1205   0.01462   0.00762  -0.0895  0.0013  0.6446
   7.500   1.1394   0.01494   0.00796  -0.0881  0.0000  0.6509
   7.750   1.1577   0.01529   0.00833  -0.0866  0.0000  0.6564
   8.000   1.1732   0.01579   0.00888  -0.0847  0.0000  0.6605
   8.250   1.1852   0.01643   0.00960  -0.0824  0.0001  0.6670
   8.500   1.2125   0.01637   0.00944  -0.0824  0.0002  0.6729
   8.750   1.2302   0.01677   0.00985  -0.0810  0.0002  0.6777
   9.000   1.2472   0.01720   0.01028  -0.0794  0.0002  0.6820
   9.250   1.2643   0.01763   0.01074  -0.0780  0.0002  0.6874
   9.500   1.2815   0.01808   0.01120  -0.0766  0.0002  0.6923
   9.750   1.2970   0.01859   0.01175  -0.0749  0.0003  0.6966
  10.000   1.3127   0.01913   0.01229  -0.0734  0.0003  0.6997
  10.250   1.3286   0.01966   0.01286  -0.0719  0.0003  0.7051
  10.500   1.3437   0.02024   0.01347  -0.0703  0.0003  0.7100
  10.750   1.3575   0.02088   0.01413  -0.0687  0.0003  0.7146
  11.000   1.3719   0.02154   0.01480  -0.0671  0.0003  0.7182
  11.250   1.3861   0.02221   0.01550  -0.0656  0.0003  0.7217
  11.500   1.3984   0.02298   0.01631  -0.0639  0.0004  0.7265
  11.750   1.4112   0.02375   0.01711  -0.0624  0.0004  0.7307
  12.000   1.4236   0.02459   0.01798  -0.0608  0.0004  0.7347
