  
       XFOIL         Version 6.94
  
 Calculated polar for: 1080                                            
  
 1 1 Reynolds number fixed          Mach number fixed         
  
 xtrf =   1.000 (top)        1.000 (bottom)  
 Mach =   0.000     Re =     2.000 e 6     Ncrit =   9.000
  
  alpha     CL        CD       CDp       CM    Top_Xtr Bot_Xtr
 ------- -------- --------- --------- -------- ------- -------
   6.000   0.9991   0.00966   0.00415  -0.0394  0.1547  0.7717
   6.250   1.0242   0.00993   0.00436  -0.0388  0.1458  0.7875
   6.500   1.0509   0.01009   0.00454  -0.0384  0.1417  0.8025
   6.750   1.0776   0.01022   0.00469  -0.0381  0.1390  0.8199
   7.250   1.1293   0.01046   0.00503  -0.0370  0.1348  0.8641
   7.500   1.1536   0.01062   0.00523  -0.0362  0.1317  0.8888
   7.750   1.1762   0.01079   0.00545  -0.0350  0.1285  0.9173
   8.000   1.1966   0.01091   0.00563  -0.0334  0.1258  0.9674
   8.250   1.2302   0.01115   0.00585  -0.0346  0.1208  1.0000
   8.500   1.2563   0.01133   0.00602  -0.0342  0.1200  1.0000
   8.750   1.2822   0.01153   0.00621  -0.0338  0.1193  1.0000
   9.000   1.3075   0.01174   0.00640  -0.0334  0.1181  1.0000
   9.250   1.3330   0.01193   0.00659  -0.0329  0.1178  1.0000
   9.500   1.3568   0.01221   0.00685  -0.0323  0.1148  1.0000
   9.750   1.3799   0.01252   0.00712  -0.0315  0.1117  1.0000
  10.000   1.3997   0.01298   0.00752  -0.0303  0.1054  1.0000
  10.250   1.4209   0.01333   0.00784  -0.0293  0.0997  1.0000
  10.500   1.4434   0.01360   0.00810  -0.0284  0.0988  1.0000
  10.750   1.4652   0.01389   0.00838  -0.0275  0.0977  1.0000
  11.250   1.3570   0.01984   0.01397  -0.0061  0.0150  1.0000
  11.500   1.4126   0.01857   0.01276  -0.0088  0.0411  1.0000
  12.000   1.3534   0.02493   0.01916  -0.0011  0.0030  1.0000
