  
       XFOIL         Version 6.94
  
 Calculated polar for: 1080                                            
  
 1 1 Reynolds number fixed          Mach number fixed         
  
 xtrf =   1.000 (top)        1.000 (bottom)  
 Mach =   0.000     Re =     2.000 e 6     Ncrit =   9.000
  
  alpha     CL        CD       CDp       CM    Top_Xtr Bot_Xtr
 ------- -------- --------- --------- -------- ------- -------
   6.250   0.7747   0.01618   0.00942  -0.0440  0.0023  0.6541
   6.750   0.8105   0.01701   0.01023  -0.0418  0.0019  0.6585
   7.250   0.8449   0.01790   0.01112  -0.0395  0.0004  0.6646
   7.500   0.8616   0.01837   0.01162  -0.0383  0.0004  0.6682
   7.750   0.8623   0.01962   0.01313  -0.0349  0.0000  0.6717
   8.250   0.9135   0.01978   0.01303  -0.0352  0.0002  0.6778
   8.500   0.9291   0.02035   0.01360  -0.0339  0.0002  0.6798
   8.750   0.9448   0.02090   0.01418  -0.0328  0.0002  0.6843
   9.000   0.9613   0.02143   0.01473  -0.0317  0.0002  0.6885
   9.250   0.9779   0.02197   0.01529  -0.0307  0.0002  0.6923
   9.500   0.9946   0.02252   0.01585  -0.0297  0.0002  0.6957
   9.750   1.0099   0.02317   0.01651  -0.0286  0.0002  0.6987
  10.000   1.0246   0.02385   0.01720  -0.0274  0.0002  0.7023
  10.250   1.0403   0.02447   0.01785  -0.0264  0.0002  0.7077
  10.500   1.0559   0.02512   0.01853  -0.0254  0.0002  0.7124
  10.750   1.0717   0.02578   0.01921  -0.0244  0.0002  0.7169
  11.250   1.1002   0.02730   0.02080  -0.0223  0.0002  0.7291
  11.500   1.1145   0.02807   0.02162  -0.0213  0.0002  0.7371
  11.750   1.1291   0.02880   0.02242  -0.0203  0.0002  0.7514
  12.000   1.1480   0.02917   0.02339  -0.0201  0.0002  0.9660
