  
       XFOIL         Version 6.94
  
 Calculated polar for: 1080                                            
  
 1 1 Reynolds number fixed          Mach number fixed         
  
 xtrf =   1.000 (top)        1.000 (bottom)  
 Mach =   0.000     Re =     2.000 e 6     Ncrit =   9.000
  
  alpha     CL        CD       CDp       CM    Top_Xtr Bot_Xtr
 ------- -------- --------- --------- -------- ------- -------
   6.000   1.0173   0.01063   0.00436  -0.0529  0.1402  0.5076
   6.250   1.0438   0.01023   0.00454  -0.0527  0.1396  0.7464
   6.500   1.0702   0.01026   0.00469  -0.0522  0.1380  0.8007
   6.750   1.0950   0.01042   0.00489  -0.0515  0.1329  0.8337
   7.000   1.1194   0.01062   0.00509  -0.0507  0.1287  0.8559
   7.250   1.1441   0.01078   0.00528  -0.0500  0.1261  0.8756
   7.500   1.1681   0.01093   0.00547  -0.0491  0.1231  0.8975
   7.750   1.1882   0.01104   0.00566  -0.0473  0.1202  0.9353
   8.000   1.2169   0.01113   0.00581  -0.0473  0.1199  1.0000
   8.250   1.2428   0.01131   0.00598  -0.0469  0.1194  1.0000
   8.500   1.2686   0.01149   0.00616  -0.0464  0.1193  1.0000
   8.750   1.2938   0.01168   0.00635  -0.0459  0.1184  1.0000
   9.000   1.3187   0.01189   0.00654  -0.0453  0.1177  1.0000
   9.250   1.3428   0.01211   0.00675  -0.0446  0.1161  1.0000
   9.500   1.3662   0.01237   0.00699  -0.0438  0.1141  1.0000
   9.750   1.3873   0.01270   0.00729  -0.0428  0.1101  1.0000
  10.000   1.4095   0.01297   0.00754  -0.0418  0.1087  1.0000
  10.250   1.4296   0.01330   0.00784  -0.0405  0.1058  1.0000
  10.500   1.4486   0.01364   0.00816  -0.0391  0.1011  1.0000
  10.750   1.4657   0.01392   0.00843  -0.0372  0.0996  1.0000
  11.000   1.4821   0.01420   0.00871  -0.0353  0.0990  1.0000
  11.250   1.4973   0.01452   0.00904  -0.0332  0.0979  1.0000
  11.500   1.5131   0.01484   0.00937  -0.0313  0.0977  1.0000
  11.750   1.5284   0.01519   0.00973  -0.0294  0.0972  1.0000
  12.000   1.5439   0.01555   0.01012  -0.0277  0.0971  1.0000
