  
       XFOIL         Version 6.94
  
 Calculated polar for: 1080                                            
  
 1 1 Reynolds number fixed          Mach number fixed         
  
 xtrf =   1.000 (top)        1.000 (bottom)  
 Mach =   0.000     Re =     2.000 e 6     Ncrit =   9.000
  
  alpha     CL        CD       CDp       CM    Top_Xtr Bot_Xtr
 ------- -------- --------- --------- -------- ------- -------
   6.000   0.9220   0.01305   0.00601  -0.0553  0.0027  0.5766
   6.250   0.9392   0.01329   0.00628  -0.0536  0.0024  0.5864
   6.500   0.9557   0.01356   0.00657  -0.0517  0.0022  0.5971
   6.750   0.9723   0.01384   0.00689  -0.0500  0.0020  0.6095
   7.250   1.0035   0.01445   0.00761  -0.0464  0.0013  0.6463
   7.500   1.0147   0.01447   0.00812  -0.0439  0.0000  0.8278
   7.750   1.0256   0.01485   0.00863  -0.0415  0.0000  0.8701
   8.000   1.0299   0.01548   0.00944  -0.0381  0.0000  0.9066
   8.750   1.0866   0.01687   0.01091  -0.0361  0.0002  1.0000
   9.000   1.1007   0.01756   0.01160  -0.0349  0.0002  1.0000
   9.250   1.1149   0.01827   0.01231  -0.0337  0.0002  1.0000
   9.500   1.1289   0.01901   0.01305  -0.0325  0.0002  1.0000
   9.750   1.1425   0.01978   0.01383  -0.0314  0.0002  1.0000
  10.000   1.1559   0.02058   0.01463  -0.0303  0.0003  1.0000
  10.250   1.1693   0.02139   0.01545  -0.0291  0.0003  1.0000
  10.500   1.1818   0.02227   0.01633  -0.0280  0.0003  1.0000
  10.750   1.1942   0.02316   0.01725  -0.0269  0.0003  1.0000
  11.000   1.2062   0.02408   0.01818  -0.0258  0.0003  1.0000
  11.250   1.2175   0.02507   0.01918  -0.0247  0.0003  1.0000
  11.500   1.2295   0.02602   0.02015  -0.0237  0.0004  1.0000
  11.750   1.2396   0.02712   0.02126  -0.0226  0.0004  1.0000
  12.000   1.2505   0.02819   0.02235  -0.0216  0.0004  1.0000
