  
       XFOIL         Version 6.94
  
 Calculated polar for: 1080                                            
  
 1 1 Reynolds number fixed          Mach number fixed         
  
 xtrf =   1.000 (top)        1.000 (bottom)  
 Mach =   0.000     Re =     2.000 e 6     Ncrit =   9.000
  
  alpha     CL        CD       CDp       CM    Top_Xtr Bot_Xtr
 ------- -------- --------- --------- -------- ------- -------
   6.000   0.9011   0.01234   0.00568  -0.0215  0.0021  0.7225
   6.250   0.9246   0.01255   0.00591  -0.0209  0.0019  0.7281
   6.500   0.9475   0.01279   0.00616  -0.0202  0.0000  0.7331
   7.250   1.0140   0.01349   0.00688  -0.0178  0.0002  0.7485
   7.500   1.0348   0.01374   0.00713  -0.0167  0.0002  0.7548
   7.750   1.0546   0.01400   0.00741  -0.0155  0.0002  0.7600
   8.000   1.0702   0.01422   0.00767  -0.0136  0.0002  0.7684
   8.250   1.0850   0.01450   0.00797  -0.0115  0.0002  0.7765
   8.500   1.0993   0.01480   0.00830  -0.0093  0.0002  0.7853
   8.750   1.1128   0.01513   0.00867  -0.0072  0.0002  0.7960
   9.000   1.1265   0.01547   0.00906  -0.0051  0.0002  0.8082
   9.250   1.1388   0.01585   0.00949  -0.0029  0.0002  0.8224
   9.750   1.1587   0.01668   0.01051   0.0019  0.0003  0.8697
  10.000   1.1670   0.01704   0.01112   0.0045  0.0003  0.9519
  10.500   1.2056   0.01844   0.01259   0.0044  0.0003  1.0000
  10.750   1.2153   0.01927   0.01344   0.0059  0.0003  1.0000
  11.000   1.2242   0.02022   0.01442   0.0072  0.0003  1.0000
  11.250   1.2322   0.02130   0.01554   0.0084  0.0004  1.0000
  11.500   1.2397   0.02253   0.01681   0.0095  0.0004  1.0000
  11.750   1.2474   0.02385   0.01818   0.0103  0.0004  1.0000
  12.000   1.2532   0.02540   0.01979   0.0110  0.0004  1.0000
