  
       XFOIL         Version 6.94
  
 Calculated polar for: 1080                                            
  
 1 1 Reynolds number fixed          Mach number fixed         
  
 xtrf =   1.000 (top)        1.000 (bottom)  
 Mach =   0.000     Re =     2.000 e 6     Ncrit =   9.000
  
  alpha     CL        CD       CDp       CM    Top_Xtr Bot_Xtr
 ------- -------- --------- --------- -------- ------- -------
   6.000   0.3911   0.01649   0.00799   0.0699  0.0133  0.0127
   6.250   0.4098   0.01670   0.00807   0.0711  0.0075  0.0147
   7.250   0.4903   0.01706   0.00864   0.0745  0.0057  0.1247
   7.750   0.4419   0.01494   0.00838   0.0962  0.0057  0.8159
   8.000   0.4562   0.01547   0.00913   0.0987  0.0057  0.8508
   8.250   0.4779   0.01578   0.00945   0.0990  0.0057  0.8531
   8.500   0.4990   0.01600   0.00969   0.0995  0.0049  0.8537
   8.750   0.5198   0.01622   0.00990   0.1000  0.0049  0.8543
   9.000   0.5407   0.01645   0.01012   0.1005  0.0050  0.8548
   9.250   0.5614   0.01668   0.01034   0.1010  0.0048  0.8553
   9.500   0.5820   0.01692   0.01058   0.1015  0.0049  0.8558
   9.750   0.6023   0.01717   0.01083   0.1020  0.0049  0.8563
  10.000   0.6225   0.01742   0.01109   0.1025  0.0047  0.8567
  10.250   0.6425   0.01769   0.01136   0.1030  0.0045  0.8571
  10.500   0.6622   0.01797   0.01165   0.1036  0.0041  0.8575
  10.750   0.6795   0.01835   0.01208   0.1045  0.0009  0.8579
  11.000   0.6979   0.01867   0.01241   0.1052  0.0005  0.8582
  11.250   0.7149   0.01904   0.01280   0.1061  0.0004  0.8585
  11.500   0.7319   0.01942   0.01319   0.1070  0.0003  0.8588
  11.750   0.7451   0.02000   0.01384   0.1086  0.0001  0.8591
  12.000   0.7665   0.02019   0.01399   0.1086  0.0003  0.8593
