  
       XFOIL         Version 6.94
  
 Calculated polar for: 1080                                            
  
 1 1 Reynolds number fixed          Mach number fixed         
  
 xtrf =   1.000 (top)        1.000 (bottom)  
 Mach =   0.000     Re =     2.000 e 6     Ncrit =   9.000
  
  alpha     CL        CD       CDp       CM    Top_Xtr Bot_Xtr
 ------- -------- --------- --------- -------- ------- -------
   6.000   0.9453   0.01318   0.00613  -0.0701  0.0025  0.5888
   6.250   0.9645   0.01343   0.00640  -0.0687  0.0025  0.5964
   6.500   0.9828   0.01372   0.00670  -0.0672  0.0022  0.6022
   6.750   1.0010   0.01401   0.00701  -0.0658  0.0020  0.6093
   7.000   1.0184   0.01434   0.00735  -0.0642  0.0019  0.6156
   7.500   1.0527   0.01504   0.00808  -0.0612  0.0013  0.6278
   7.750   1.0691   0.01545   0.00852  -0.0597  0.0000  0.6337
   8.000   1.0846   0.01592   0.00901  -0.0580  0.0000  0.6384
   8.250   1.0944   0.01667   0.00986  -0.0557  0.0000  0.6434
   8.750   1.1337   0.01730   0.01043  -0.0539  0.0002  0.6548
   9.000   1.1496   0.01783   0.01095  -0.0525  0.0002  0.6590
   9.250   1.1650   0.01837   0.01152  -0.0512  0.0002  0.6646
   9.500   1.1803   0.01893   0.01210  -0.0498  0.0002  0.6701
   9.750   1.1956   0.01951   0.01269  -0.0485  0.0002  0.6749
  10.000   1.2101   0.02015   0.01334  -0.0471  0.0002  0.6787
  10.250   1.2249   0.02078   0.01400  -0.0458  0.0003  0.6836
  10.500   1.2389   0.02145   0.01471  -0.0445  0.0003  0.6891
  10.750   1.2520   0.02218   0.01547  -0.0431  0.0003  0.6942
  11.000   1.2658   0.02291   0.01622  -0.0418  0.0003  0.6989
  11.250   1.2785   0.02370   0.01705  -0.0405  0.0003  0.7058
  11.500   1.2904   0.02455   0.01794  -0.0391  0.0003  0.7131
  12.000   1.3144   0.02629   0.01977  -0.0366  0.0004  0.7331
