  
       XFOIL         Version 6.94
  
 Calculated polar for: 1080                                            
  
 1 1 Reynolds number fixed          Mach number fixed         
  
 xtrf =   1.000 (top)        1.000 (bottom)  
 Mach =   0.000     Re =     2.000 e 6     Ncrit =   9.000
  
  alpha     CL        CD       CDp       CM    Top_Xtr Bot_Xtr
 ------- -------- --------- --------- -------- ------- -------
   6.000   0.6659   0.04013   0.03414  -0.0255  0.0084  0.8991
   6.250   0.6840   0.04014   0.03415  -0.0241  0.0083  0.8991
   6.500   0.7019   0.04014   0.03416  -0.0227  0.0081  0.8990
   6.750   0.7194   0.04012   0.03415  -0.0212  0.0081  0.8990
   7.000   0.7365   0.04008   0.03412  -0.0197  0.0079  0.8990
   7.250   0.7531   0.04000   0.03405  -0.0180  0.0076  0.8989
