  
       XFOIL         Version 6.94
  
 Calculated polar for: 1080                                            
  
 1 1 Reynolds number fixed          Mach number fixed         
  
 xtrf =   1.000 (top)        1.000 (bottom)  
 Mach =   0.000     Re =     2.000 e 6     Ncrit =   9.000
  
  alpha     CL        CD       CDp       CM    Top_Xtr Bot_Xtr
 ------- -------- --------- --------- -------- ------- -------
   6.000   0.6351   0.01048   0.00514   0.0219  0.2338  0.7737
   6.250   0.6501   0.01084   0.00544   0.0236  0.2223  0.7756
   6.500   0.6683   0.01112   0.00568   0.0248  0.2135  0.7771
   6.750   0.6870   0.01139   0.00594   0.0258  0.2078  0.7784
   7.000   0.7034   0.01174   0.00623   0.0273  0.1970  0.7794
   7.250   0.7145   0.01226   0.00662   0.0295  0.1754  0.7808
   7.500   0.7296   0.01263   0.00694   0.0311  0.1632  0.7840
   7.750   0.7462   0.01298   0.00725   0.0324  0.1520  0.7867
   8.000   0.7619   0.01336   0.00759   0.0338  0.1434  0.7889
   8.250   0.7787   0.01371   0.00792   0.0350  0.1354  0.7909
   8.500   0.7907   0.01426   0.00835   0.0369  0.1174  0.7928
   8.750   0.7596   0.01659   0.01010   0.0453  0.0119  0.7952
   9.000   0.7774   0.01697   0.01048   0.0462  0.0098  0.7966
   9.250   0.7963   0.01732   0.01082   0.0469  0.0106  0.7979
   9.500   0.8124   0.01780   0.01129   0.0480  0.0054  0.7989
   9.750   0.8282   0.01829   0.01178   0.0491  0.0021  0.7997
  10.000   0.8432   0.01880   0.01230   0.0503  0.0005  0.8018
  10.250   0.8598   0.01924   0.01276   0.0512  0.0003  0.8047
  10.500   0.8766   0.01968   0.01321   0.0521  0.0003  0.8071
  10.750   0.8934   0.02013   0.01368   0.0529  0.0003  0.8091
  11.000   0.9098   0.02062   0.01420   0.0538  0.0003  0.8110
  11.250   0.9248   0.02117   0.01477   0.0548  0.0003  0.8129
  11.500   0.9402   0.02172   0.01533   0.0557  0.0002  0.8146
  11.750   0.9561   0.02227   0.01588   0.0565  0.0002  0.8161
  12.000   0.9718   0.02283   0.01646   0.0573  0.0002  0.8175
