  
       XFOIL         Version 6.94
  
 Calculated polar for: 1080                                            
  
 1 1 Reynolds number fixed          Mach number fixed         
  
 xtrf =   1.000 (top)        1.000 (bottom)  
 Mach =   0.000     Re =     2.000 e 6     Ncrit =   9.000
  
  alpha     CL        CD       CDp       CM    Top_Xtr Bot_Xtr
 ------- -------- --------- --------- -------- ------- -------
   6.000   0.3989   0.01668   0.00813   0.0592  0.0058  0.0114
   6.250   0.4184   0.01681   0.00827   0.0602  0.0058  0.0121
   6.500   0.4168   0.01625   0.00838   0.0658  0.0058  0.4016
   7.000   0.3788   0.01477   0.00838   0.0854  0.0059  0.8327
   7.500   0.4191   0.01556   0.00927   0.0871  0.0058  0.8500
   7.750   0.4398   0.01579   0.00949   0.0877  0.0057  0.8506
   8.000   0.4607   0.01601   0.00972   0.0883  0.0053  0.8512
   8.250   0.4813   0.01624   0.00995   0.0888  0.0051  0.8519
   8.500   0.5016   0.01648   0.01018   0.0894  0.0053  0.8525
   8.750   0.5218   0.01673   0.01044   0.0901  0.0053  0.8530
   9.000   0.5416   0.01700   0.01069   0.0907  0.0055  0.8536
   9.250   0.5613   0.01727   0.01097   0.0914  0.0053  0.8542
   9.500   0.5805   0.01756   0.01126   0.0921  0.0054  0.8547
   9.750   0.5985   0.01788   0.01159   0.0930  0.0053  0.8553
  10.000   0.6154   0.01824   0.01197   0.0941  0.0051  0.8558
  10.250   0.6329   0.01860   0.01234   0.0951  0.0051  0.8563
  10.500   0.6496   0.01897   0.01273   0.0960  0.0027  0.8568
  10.750   0.6674   0.01933   0.01309   0.0969  0.0034  0.8572
  11.000   0.6844   0.01972   0.01349   0.0978  0.0007  0.8576
  11.250   0.7024   0.02007   0.01384   0.0986  0.0005  0.8580
  11.500   0.7196   0.02046   0.01426   0.0994  0.0005  0.8583
  11.750   0.7352   0.02093   0.01475   0.1005  0.0003  0.8586
  12.000   0.7495   0.02144   0.01529   0.1018  0.0002  0.8589
