  
       XFOIL         Version 6.94
  
 Calculated polar for: 1080                                            
  
 1 1 Reynolds number fixed          Mach number fixed         
  
 xtrf =   1.000 (top)        1.000 (bottom)  
 Mach =   0.000     Re =     2.000 e 6     Ncrit =   9.000
  
  alpha     CL        CD       CDp       CM    Top_Xtr Bot_Xtr
 ------- -------- --------- --------- -------- ------- -------
   6.000   0.4995   0.03817   0.03231  -0.0006  0.0090  0.9200
   6.250   0.5201   0.03820   0.03233   0.0003  0.0085  0.9200
   6.500   0.5406   0.03822   0.03235   0.0012  0.0084  0.9200
   6.750   0.5611   0.03825   0.03239   0.0021  0.0085  0.9200
   7.000   0.5815   0.03829   0.03243   0.0031  0.0085  0.9200
   7.250   0.6017   0.03833   0.03248   0.0040  0.0083  0.9200
   7.500   0.6219   0.03838   0.03255   0.0050  0.0079  0.9200
   7.750   0.6420   0.03843   0.03262   0.0060  0.0080  0.9200
   8.000   0.6618   0.03849   0.03268   0.0070  0.0078  0.9200
