  
       XFOIL         Version 6.94
  
 Calculated polar for: 1080                                            
  
 1 1 Reynolds number fixed          Mach number fixed         
  
 xtrf =   1.000 (top)        1.000 (bottom)  
 Mach =   0.000     Re =     2.000 e 6     Ncrit =   9.000
  
  alpha     CL        CD       CDp       CM    Top_Xtr Bot_Xtr
 ------- -------- --------- --------- -------- ------- -------
   6.000   0.4956   0.01817   0.01212   0.0112  0.0164  0.8375
   6.250   0.5128   0.01861   0.01253   0.0123  0.0114  0.8378
   6.500   0.5295   0.01907   0.01298   0.0134  0.0080  0.8382
   6.750   0.5482   0.01947   0.01333   0.0142  0.0079  0.8385
   7.000   0.5663   0.01988   0.01370   0.0151  0.0077  0.8388
   7.250   0.5835   0.02033   0.01410   0.0161  0.0076  0.8391
   7.750   0.6226   0.02108   0.01487   0.0173  0.0058  0.8396
   8.000   0.6406   0.02154   0.01532   0.0182  0.0056  0.8399
   8.250   0.6580   0.02202   0.01579   0.0190  0.0055  0.8403
   8.500   0.6760   0.02247   0.01624   0.0198  0.0051  0.8413
   8.750   0.6942   0.02291   0.01668   0.0205  0.0052  0.8423
   9.000   0.7128   0.02334   0.01712   0.0212  0.0050  0.8433
   9.250   0.7311   0.02378   0.01756   0.0218  0.0051  0.8443
   9.500   0.7495   0.02423   0.01801   0.0225  0.0044  0.8452
   9.750   0.7675   0.02469   0.01848   0.0232  0.0040  0.8461
  10.000   0.7852   0.02518   0.01897   0.0239  0.0038  0.8469
  10.250   0.8018   0.02575   0.01956   0.0247  0.0039  0.8478
  10.500   0.8186   0.02632   0.02013   0.0254  0.0039  0.8486
  10.750   0.8360   0.02685   0.02067   0.0261  0.0036  0.8494
  11.000   0.8534   0.02738   0.02121   0.0267  0.0032  0.8501
  11.250   0.8694   0.02799   0.02183   0.0276  0.0018  0.8509
  11.500   0.8883   0.02846   0.02231   0.0280  0.0025  0.8516
  11.750   0.9033   0.02915   0.02298   0.0289  0.0008  0.8524
  12.000   0.9197   0.02976   0.02359   0.0296  0.0006  0.8531
