  
       XFOIL         Version 6.94
  
 Calculated polar for: 1080                                            
  
 1 1 Reynolds number fixed          Mach number fixed         
  
 xtrf =   1.000 (top)        1.000 (bottom)  
 Mach =   0.000     Re =     2.000 e 6     Ncrit =   9.000
  
  alpha     CL        CD       CDp       CM    Top_Xtr Bot_Xtr
 ------- -------- --------- --------- -------- ------- -------
   6.000   1.0426   0.01076   0.00444  -0.0674  0.1389  0.4877
   6.250   1.0693   0.01086   0.00458  -0.0670  0.1368  0.5096
   6.500   1.0948   0.01104   0.00475  -0.0665  0.1323  0.5270
   6.750   1.1196   0.01126   0.00495  -0.0658  0.1275  0.5422
   7.000   1.1445   0.01146   0.00514  -0.0651  0.1223  0.5577
   7.250   1.1700   0.01161   0.00533  -0.0645  0.1202  0.5759
   7.500   1.1959   0.01173   0.00550  -0.0640  0.1199  0.5972
   7.750   1.2216   0.01182   0.00566  -0.0635  0.1196  0.6278
   8.000   1.2430   0.01146   0.00594  -0.0622  0.1193  0.8928
   8.250   1.2612   0.01145   0.00610  -0.0600  0.1190  0.9892
   8.500   1.2865   0.01163   0.00627  -0.0594  0.1187  1.0000
   8.750   1.3107   0.01183   0.00646  -0.0587  0.1175  1.0000
   9.000   1.3347   0.01203   0.00665  -0.0579  0.1169  1.0000
   9.250   1.3580   0.01225   0.00686  -0.0570  0.1158  1.0000
   9.500   1.3808   0.01247   0.00709  -0.0561  0.1151  1.0000
   9.750   1.4005   0.01275   0.00734  -0.0546  0.1120  1.0000
  10.000   1.4156   0.01310   0.00764  -0.0524  0.1080  1.0000
  10.250   1.4327   0.01339   0.00791  -0.0505  0.1058  1.0000
  10.500   1.4501   0.01368   0.00820  -0.0487  0.1042  1.0000
  10.750   1.4658   0.01404   0.00853  -0.0467  0.1000  1.0000
  11.000   1.4836   0.01432   0.00883  -0.0451  0.1000  1.0000
  11.250   1.5011   0.01464   0.00916  -0.0435  0.0995  1.0000
  11.500   1.5177   0.01499   0.00952  -0.0418  0.0991  1.0000
  11.750   1.5342   0.01535   0.00990  -0.0402  0.0991  1.0000
  12.000   1.5496   0.01578   0.01034  -0.0385  0.0986  1.0000
