  
       XFOIL         Version 6.94
  
 Calculated polar for: 1080                                            
  
 1 1 Reynolds number fixed          Mach number fixed         
  
 xtrf =   1.000 (top)        1.000 (bottom)  
 Mach =   0.000     Re =     2.000 e 6     Ncrit =   9.000
  
  alpha     CL        CD       CDp       CM    Top_Xtr Bot_Xtr
 ------- -------- --------- --------- -------- ------- -------
   6.000   0.6726   0.01017   0.00492   0.0054  0.2683  0.7746
   6.250   0.6751   0.01088   0.00546   0.0093  0.2328  0.7763
   6.500   0.6884   0.01130   0.00580   0.0113  0.2185  0.7776
   6.750   0.6951   0.01193   0.00630   0.0144  0.1900  0.7788
   7.000   0.6666   0.01376   0.00763   0.0230  0.0926  0.7799
   7.500   0.6735   0.01542   0.00901   0.0296  0.0287  0.7857
   7.750   0.6838   0.01605   0.00958   0.0318  0.0115  0.7879
   8.000   0.7014   0.01642   0.00996   0.0328  0.0115  0.7898
   8.250   0.7159   0.01692   0.01040   0.0342  0.0073  0.7917
   8.500   0.7347   0.01727   0.01076   0.0350  0.0055  0.7933
   8.750   0.7508   0.01773   0.01121   0.0361  0.0054  0.7949
   9.000   0.7674   0.01817   0.01168   0.0371  0.0048  0.7963
   9.250   0.7842   0.01863   0.01214   0.0381  0.0041  0.7976
   9.500   0.8011   0.01909   0.01260   0.0390  0.0039  0.7986
   9.750   0.8170   0.01960   0.01313   0.0400  0.0038  0.7994
  10.000   0.8322   0.02015   0.01368   0.0410  0.0037  0.8002
  10.250   0.8448   0.02081   0.01437   0.0424  0.0019  0.8031
  10.500   0.8624   0.02124   0.01484   0.0432  0.0025  0.8056
  10.750   0.8736   0.02200   0.01561   0.0447  0.0004  0.8079
  11.000   0.8875   0.02264   0.01627   0.0458  0.0004  0.8098
  11.250   0.9022   0.02326   0.01690   0.0467  0.0003  0.8115
  11.500   0.9172   0.02388   0.01753   0.0476  0.0003  0.8132
  11.750   0.9313   0.02456   0.01823   0.0485  0.0003  0.8147
  12.000   0.9444   0.02532   0.01900   0.0495  0.0002  0.8161
