  
       XFOIL         Version 6.94
  
 Calculated polar for: 1080                                            
  
 1 1 Reynolds number fixed          Mach number fixed         
  
 xtrf =   1.000 (top)        1.000 (bottom)  
 Mach =   0.000     Re =     2.000 e 6     Ncrit =   9.000
  
  alpha     CL        CD       CDp       CM    Top_Xtr Bot_Xtr
 ------- -------- --------- --------- -------- ------- -------
   6.000   1.0809   0.01084   0.00454  -0.0850  0.1355  0.5215
   6.250   1.1064   0.01101   0.00470  -0.0844  0.1318  0.5381
   6.500   1.1309   0.01124   0.00490  -0.0836  0.1256  0.5533
   6.750   1.1560   0.01142   0.00509  -0.0829  0.1215  0.5682
   7.000   1.1816   0.01157   0.00527  -0.0823  0.1200  0.5840
   7.250   1.2072   0.01170   0.00543  -0.0817  0.1198  0.5988
   7.500   1.2326   0.01183   0.00560  -0.0810  0.1194  0.6142
   7.750   1.2576   0.01197   0.00577  -0.0803  0.1191  0.6282
   8.000   1.2823   0.01213   0.00595  -0.0796  0.1186  0.6383
   8.250   1.3067   0.01229   0.00612  -0.0788  0.1180  0.6460
   8.500   1.3306   0.01246   0.00631  -0.0779  0.1175  0.6538
   8.750   1.3537   0.01265   0.00650  -0.0769  0.1164  0.6596
   9.000   1.3747   0.01283   0.00669  -0.0755  0.1149  0.6667
   9.250   1.3941   0.01303   0.00691  -0.0738  0.1130  0.6736
   9.500   1.4134   0.01327   0.00714  -0.0722  0.1111  0.6795
   9.750   1.4321   0.01354   0.00740  -0.0705  0.1087  0.6877
  10.000   1.4491   0.01387   0.00771  -0.0685  0.1042  0.6952
  10.500   1.4872   0.01437   0.00826  -0.0654  0.1010  0.7143
  10.750   1.5067   0.01460   0.00854  -0.0640  0.1002  0.7319
  11.000   1.5181   0.01441   0.00887  -0.0610  0.0999  1.0000
  11.250   1.5365   0.01473   0.00919  -0.0595  0.0992  1.0000
  11.500   1.5548   0.01506   0.00953  -0.0580  0.0987  1.0000
  11.750   1.5731   0.01539   0.00989  -0.0566  0.0988  1.0000
  12.000   1.5901   0.01579   0.01029  -0.0550  0.0976  1.0000
