  
       XFOIL         Version 6.94
  
 Calculated polar for: 1080                                            
  
 1 1 Reynolds number fixed          Mach number fixed         
  
 xtrf =   1.000 (top)        1.000 (bottom)  
 Mach =   0.000     Re =     2.000 e 6     Ncrit =   9.000
  
  alpha     CL        CD       CDp       CM    Top_Xtr Bot_Xtr
 ------- -------- --------- --------- -------- ------- -------
   6.000   0.5871   0.01361   0.00779   0.0092  0.1265  0.7949
   6.250   0.5976   0.01419   0.00829   0.0115  0.1092  0.7958
   6.500   0.5699   0.01616   0.00987   0.0195  0.0194  0.7972
   6.750   0.5847   0.01666   0.01033   0.0209  0.0115  0.7979
   7.000   0.6021   0.01707   0.01073   0.0220  0.0111  0.7985
   7.250   0.6186   0.01753   0.01116   0.0231  0.0078  0.7990
   7.500   0.6338   0.01805   0.01162   0.0244  0.0075  0.7995
   7.750   0.6511   0.01850   0.01207   0.0253  0.0058  0.7999
   8.000   0.6682   0.01894   0.01252   0.0263  0.0055  0.8011
   8.250   0.6852   0.01938   0.01296   0.0272  0.0054  0.8031
   8.500   0.7023   0.01983   0.01342   0.0281  0.0052  0.8049
   8.750   0.7180   0.02036   0.01396   0.0292  0.0051  0.8065
   9.000   0.7339   0.02090   0.01452   0.0302  0.0047  0.8080
   9.250   0.7504   0.02141   0.01504   0.0311  0.0046  0.8092
   9.500   0.7667   0.02195   0.01559   0.0320  0.0039  0.8104
   9.750   0.7832   0.02249   0.01614   0.0329  0.0042  0.8115
  10.000   0.7983   0.02312   0.01677   0.0339  0.0040  0.8125
  10.250   0.8139   0.02372   0.01739   0.0348  0.0037  0.8136
  10.500   0.8300   0.02430   0.01798   0.0356  0.0035  0.8146
  10.750   0.8460   0.02489   0.01859   0.0363  0.0033  0.8156
  11.000   0.8602   0.02560   0.01932   0.0373  0.0028  0.8165
  11.250   0.8716   0.02648   0.02019   0.0386  0.0008  0.8175
  11.500   0.8864   0.02718   0.02089   0.0394  0.0004  0.8182
  11.750   0.9020   0.02784   0.02156   0.0401  0.0004  0.8189
  12.000   0.9168   0.02858   0.02230   0.0409  0.0004  0.8195
