  
       XFOIL         Version 6.94
  
 Calculated polar for: 1080                                            
  
 1 1 Reynolds number fixed          Mach number fixed         
  
 xtrf =   1.000 (top)        1.000 (bottom)  
 Mach =   0.000     Re =     2.000 e 6     Ncrit =   9.000
  
  alpha     CL        CD       CDp       CM    Top_Xtr Bot_Xtr
 ------- -------- --------- --------- -------- ------- -------
   6.000   0.9136   0.01233   0.00580  -0.0340  0.0023  0.7696
   6.250   0.9363   0.01256   0.00603  -0.0332  0.0019  0.7735
   6.500   0.9585   0.01280   0.00627  -0.0324  0.0017  0.7770
   6.750   0.9797   0.01306   0.00653  -0.0314  0.0000  0.7799
   7.000   0.9988   0.01335   0.00688  -0.0300  0.0000  0.7857
   7.500   1.0347   0.01377   0.00729  -0.0268  0.0002  0.7964
   8.000   1.0634   0.01434   0.00791  -0.0225  0.0002  0.8104
   8.250   1.0767   0.01468   0.00827  -0.0202  0.0002  0.8186
   8.500   1.0899   0.01502   0.00867  -0.0180  0.0002  0.8296
   9.000   1.1120   0.01585   0.00960  -0.0133  0.0002  0.8586
   9.250   1.1199   0.01631   0.01017  -0.0106  0.0003  0.8842
   9.500   1.1313   0.01675   0.01082  -0.0087  0.0003  0.9598
  10.000   1.1642   0.01827   0.01239  -0.0080  0.0003  1.0000
  10.250   1.1734   0.01921   0.01334  -0.0065  0.0003  1.0000
  10.500   1.1822   0.02028   0.01443  -0.0053  0.0003  1.0000
  10.750   1.1909   0.02145   0.01563  -0.0043  0.0003  1.0000
  11.000   1.1988   0.02277   0.01698  -0.0034  0.0004  1.0000
  11.250   1.2069   0.02417   0.01842  -0.0027  0.0004  1.0000
  11.500   1.2143   0.02570   0.01998  -0.0020  0.0004  1.0000
  11.750   1.2211   0.02731   0.02162  -0.0015  0.0004  1.0000
  12.000   1.2275   0.02901   0.02336  -0.0011  0.0004  1.0000
