  
       XFOIL         Version 6.94
  
 Calculated polar for: 1080                                            
  
 1 1 Reynolds number fixed          Mach number fixed         
  
 xtrf =   1.000 (top)        1.000 (bottom)  
 Mach =   0.000     Re =     2.000 e 6     Ncrit =   9.000
  
  alpha     CL        CD       CDp       CM    Top_Xtr Bot_Xtr
 ------- -------- --------- --------- -------- ------- -------
   6.000   0.7719   0.01247   0.00587  -0.0127  0.0038  0.7487
   6.250   0.7880   0.01276   0.00618  -0.0110  0.0023  0.7510
   6.500   0.8035   0.01309   0.00651  -0.0093  0.0019  0.7533
   6.750   0.8188   0.01344   0.00686  -0.0077  0.0014  0.7553
   7.000   0.8333   0.01383   0.00726  -0.0060  0.0004  0.7572
   7.250   0.8458   0.01432   0.00778  -0.0040  0.0000  0.7589
   7.500   0.8350   0.01572   0.00947   0.0012  0.0000  0.7613
   8.000   0.8895   0.01565   0.00911   0.0005  0.0002  0.7679
   8.250   0.9029   0.01618   0.00968   0.0020  0.0002  0.7710
   8.500   0.9160   0.01677   0.01028   0.0035  0.0002  0.7740
   8.750   0.9286   0.01741   0.01093   0.0050  0.0002  0.7765
   9.000   0.9412   0.01807   0.01161   0.0064  0.0002  0.7786
   9.500   0.9650   0.01951   0.01310   0.0092  0.0002  0.7853
  10.500   1.0115   0.02275   0.01642   0.0142  0.0000  0.7996
  10.750   1.0220   0.02366   0.01737   0.0154  0.0000  0.8051
  11.500   1.0548   0.02650   0.02030   0.0185  0.0014  0.8199
  11.750   1.0620   0.02769   0.02158   0.0198  0.0018  0.8286
  12.000   1.0726   0.02870   0.02262   0.0207  0.0017  0.8364
