  
       XFOIL         Version 6.94
  
 Calculated polar for: 1080                                            
  
 1 1 Reynolds number fixed          Mach number fixed         
  
 xtrf =   1.000 (top)        1.000 (bottom)  
 Mach =   0.000     Re =     2.000 e 6     Ncrit =   9.000
  
  alpha     CL        CD       CDp       CM    Top_Xtr Bot_Xtr
 ------- -------- --------- --------- -------- ------- -------
   6.000   0.9772   0.00987   0.00436  -0.0243  0.1378  0.7910
   6.500   1.0288   0.01035   0.00472  -0.0234  0.1222  0.8156
   6.750   1.0555   0.01048   0.00488  -0.0231  0.1201  0.8306
   7.000   1.0823   0.01059   0.00504  -0.0227  0.1199  0.8473
   7.250   1.1085   0.01070   0.00520  -0.0223  0.1195  0.8667
   7.500   1.1337   0.01081   0.00536  -0.0216  0.1186  0.8902
   7.750   1.1577   0.01090   0.00552  -0.0207  0.1184  0.9203
   8.000   1.1804   0.01099   0.00569  -0.0195  0.1169  0.9649
   8.250   1.2163   0.01122   0.00591  -0.0212  0.1146  1.0000
   8.500   1.2368   0.01180   0.00634  -0.0202  0.1011  1.0000
   8.750   1.2618   0.01205   0.00657  -0.0197  0.0988  1.0000
