  
       XFOIL         Version 6.94
  
 Calculated polar for: 1080                                            
  
 1 1 Reynolds number fixed          Mach number fixed         
  
 xtrf =   1.000 (top)        1.000 (bottom)  
 Mach =   0.000     Re =     2.000 e 6     Ncrit =   9.000
  
  alpha     CL        CD       CDp       CM    Top_Xtr Bot_Xtr
 ------- -------- --------- --------- -------- ------- -------
   6.000   0.8470   0.01476   0.00794  -0.0716  0.0023  0.6646
   6.500   0.8854   0.01543   0.00860  -0.0694  0.0017  0.6716
   6.750   0.9034   0.01581   0.00901  -0.0681  0.0004  0.6748
   7.000   0.9195   0.01631   0.00955  -0.0666  0.0000  0.6776
   7.250   0.9245   0.01738   0.01083  -0.0633  0.0000  0.6796
   7.750   0.9776   0.01739   0.01060  -0.0637  0.0002  0.6878
   8.000   0.9943   0.01786   0.01108  -0.0624  0.0002  0.6912
   8.250   1.0114   0.01833   0.01158  -0.0611  0.0002  0.6944
   8.500   1.0290   0.01881   0.01205  -0.0600  0.0002  0.6970
   8.750   1.0467   0.01930   0.01255  -0.0589  0.0002  0.6991
   9.000   1.0637   0.01981   0.01307  -0.0577  0.0002  0.7019
   9.250   1.0791   0.02039   0.01369  -0.0563  0.0002  0.7059
   9.500   1.0952   0.02097   0.01429  -0.0551  0.0002  0.7092
   9.750   1.1117   0.02155   0.01489  -0.0539  0.0002  0.7122
  10.000   1.1279   0.02216   0.01550  -0.0528  0.0002  0.7149
  10.250   1.1424   0.02286   0.01622  -0.0515  0.0002  0.7172
  10.500   1.1577   0.02355   0.01693  -0.0503  0.0002  0.7191
  10.750   1.1731   0.02424   0.01765  -0.0492  0.0002  0.7218
  11.000   1.1878   0.02498   0.01843  -0.0480  0.0002  0.7257
  11.250   1.2014   0.02581   0.01929  -0.0467  0.0002  0.7287
  11.500   1.2160   0.02659   0.02010  -0.0456  0.0002  0.7314
  11.750   1.2305   0.02741   0.02094  -0.0445  0.0002  0.7338
  12.000   1.2430   0.02836   0.02192  -0.0433  0.0002  0.7360
