  
       XFOIL         Version 6.94
  
 Calculated polar for: 1080                                            
  
 1 1 Reynolds number fixed          Mach number fixed         
  
 xtrf =   1.000 (top)        1.000 (bottom)  
 Mach =   0.000     Re =     2.000 e 6     Ncrit =   9.000
  
  alpha     CL        CD       CDp       CM    Top_Xtr Bot_Xtr
 ------- -------- --------- --------- -------- ------- -------
   6.000   1.1501   0.01116   0.00478  -0.1100  0.1282  0.5558
   6.250   1.1755   0.01135   0.00497  -0.1093  0.1228  0.5723
   6.500   1.2013   0.01150   0.00515  -0.1087  0.1201  0.5892
   6.750   1.2274   0.01162   0.00530  -0.1081  0.1198  0.6050
   7.250   1.2788   0.01188   0.00563  -0.1068  0.1191  0.6374
   7.500   1.3041   0.01202   0.00580  -0.1061  0.1185  0.6505
   7.750   1.3289   0.01218   0.00596  -0.1053  0.1180  0.6592
   8.000   1.3528   0.01233   0.00614  -0.1043  0.1171  0.6679
   8.250   1.3755   0.01248   0.00630  -0.1031  0.1164  0.6758
   8.500   1.3976   0.01266   0.00648  -0.1018  0.1150  0.6821
   8.750   1.4197   0.01285   0.00669  -0.1005  0.1135  0.6895
   9.000   1.4411   0.01309   0.00693  -0.0991  0.1110  0.6967
   9.250   1.4621   0.01336   0.00717  -0.0977  0.1082  0.7033
   9.500   1.4828   0.01362   0.00742  -0.0963  0.1056  0.7105
   9.750   1.5035   0.01388   0.00768  -0.0948  0.1026  0.7167
  10.000   1.5249   0.01409   0.00791  -0.0935  0.1019  0.7227
  10.250   1.5454   0.01434   0.00818  -0.0921  0.0999  0.7299
  10.500   1.5662   0.01457   0.00843  -0.0907  0.0998  0.7361
  10.750   1.5869   0.01482   0.00869  -0.0893  0.0993  0.7410
  11.000   1.6076   0.01507   0.00897  -0.0880  0.0989  0.7478
  11.250   1.6279   0.01534   0.00927  -0.0866  0.0984  0.7541
  11.500   1.6474   0.01563   0.00957  -0.0851  0.0980  0.7593
  11.750   1.6670   0.01591   0.00989  -0.0837  0.0975  0.7659
  12.000   1.6864   0.01622   0.01022  -0.0823  0.0970  0.7735
