  
       XFOIL         Version 6.94
  
 Calculated polar for: 1080                                            
  
 1 1 Reynolds number fixed          Mach number fixed         
  
 xtrf =   1.000 (top)        1.000 (bottom)  
 Mach =   0.000     Re =     2.000 e 6     Ncrit =   9.000
  
  alpha     CL        CD       CDp       CM    Top_Xtr Bot_Xtr
 ------- -------- --------- --------- -------- ------- -------
   6.000   0.9205   0.01238   0.00599  -0.0453  0.0024  0.8186
   6.250   0.9407   0.01260   0.00623  -0.0440  0.0022  0.8269
   6.500   0.9573   0.01281   0.00646  -0.0421  0.0019  0.8340
   6.750   0.9728   0.01306   0.00671  -0.0399  0.0019  0.8397
   7.000   0.9871   0.01333   0.00703  -0.0376  0.0000  0.8478
   7.250   0.9987   0.01370   0.00746  -0.0350  0.0000  0.8560
   7.500   1.0110   0.01407   0.00788  -0.0325  0.0000  0.8653
   8.250   1.0481   0.01506   0.00899  -0.0256  0.0002  0.9141
   8.500   1.0681   0.01548   0.00954  -0.0251  0.0002  0.9720
   9.000   1.0975   0.01677   0.01085  -0.0230  0.0002  1.0000
   9.250   1.1087   0.01756   0.01165  -0.0215  0.0002  1.0000
   9.500   1.1200   0.01843   0.01253  -0.0202  0.0002  1.0000
   9.750   1.1312   0.01937   0.01348  -0.0191  0.0003  1.0000
  10.000   1.1426   0.02037   0.01449  -0.0180  0.0003  1.0000
  10.250   1.1536   0.02143   0.01556  -0.0171  0.0003  1.0000
  10.500   1.1642   0.02254   0.01669  -0.0161  0.0003  1.0000
  10.750   1.1747   0.02368   0.01785  -0.0152  0.0003  1.0000
  11.000   1.1848   0.02486   0.01904  -0.0144  0.0003  1.0000
  11.250   1.1939   0.02613   0.02035  -0.0135  0.0004  1.0000
  11.500   1.2031   0.02739   0.02162  -0.0126  0.0004  1.0000
  11.750   1.2117   0.02872   0.02298  -0.0118  0.0004  1.0000
  12.000   1.2194   0.03014   0.02442  -0.0110  0.0004  1.0000
