  
       XFOIL         Version 6.94
  
 Calculated polar for: 1080                                            
  
 1 1 Reynolds number fixed          Mach number fixed         
  
 xtrf =   1.000 (top)        1.000 (bottom)  
 Mach =   0.000     Re =     2.000 e 6     Ncrit =   9.000
  
  alpha     CL        CD       CDp       CM    Top_Xtr Bot_Xtr
 ------- -------- --------- --------- -------- ------- -------
   6.250   0.7356   0.01554   0.00943  -0.0258  0.0034  0.8506
   6.500   0.7505   0.01609   0.01000  -0.0244  0.0026  0.8552
   6.750   0.7660   0.01664   0.01055  -0.0232  0.0021  0.8588
   7.000   0.7812   0.01718   0.01108  -0.0219  0.0016  0.8635
   7.250   0.7962   0.01770   0.01162  -0.0205  0.0017  0.8692
   7.500   0.8103   0.01829   0.01223  -0.0191  0.0004  0.8744
   7.750   0.8140   0.01938   0.01351  -0.0164  0.0000  0.8795
   8.000   0.8138   0.02062   0.01493  -0.0131  0.0000  0.8876
   8.750   0.8815   0.02120   0.01525  -0.0124  0.0002  0.9084
   9.000   0.8956   0.02176   0.01585  -0.0110  0.0002  0.9204
   9.250   0.9124   0.02239   0.01659  -0.0104  0.0002  0.9486
   9.500   0.9491   0.02320   0.01743  -0.0141  0.0002  0.9678
   9.750   0.9880   0.02403   0.01826  -0.0183  0.0002  0.9817
