  
       XFOIL         Version 6.94
  
 Calculated polar for: 1080                                            
  
 1 1 Reynolds number fixed          Mach number fixed         
  
 xtrf =   1.000 (top)        1.000 (bottom)  
 Mach =   0.000     Re =     2.000 e 6     Ncrit =   9.000
  
  alpha     CL        CD       CDp       CM    Top_Xtr Bot_Xtr
 ------- -------- --------- --------- -------- ------- -------
   6.000   0.5108   0.01859   0.01260  -0.0035  0.0112  0.8521
   6.250   0.5303   0.01894   0.01294  -0.0027  0.0096  0.8593
   6.500   0.5487   0.01928   0.01324  -0.0016  0.0077  0.8663
   6.750   0.5678   0.01962   0.01357  -0.0007  0.0076  0.8725
   7.250   0.6056   0.02040   0.01426   0.0011  0.0074  0.8803
   7.500   0.6277   0.02061   0.01457   0.0015  0.0057  0.8855
   7.750   0.6469   0.02094   0.01491   0.0024  0.0057  0.8900
   8.000   0.6663   0.02129   0.01527   0.0031  0.0053  0.8939
   8.250   0.6858   0.02166   0.01564   0.0039  0.0052  0.8970
   8.500   0.7050   0.02206   0.01603   0.0046  0.0051  0.8994
   8.750   0.7229   0.02250   0.01649   0.0055  0.0050  0.9034
   9.000   0.7403   0.02293   0.01694   0.0066  0.0050  0.9078
   9.250   0.7584   0.02335   0.01738   0.0074  0.0046  0.9116
   9.500   0.7768   0.02377   0.01781   0.0082  0.0039  0.9151
   9.750   0.7955   0.02419   0.01823   0.0090  0.0038  0.9182
  10.250   0.8326   0.02501   0.01911   0.0105  0.0039  0.9289
  10.500   0.8515   0.02542   0.01954   0.0112  0.0036  0.9345
  11.000   0.8939   0.02636   0.02054   0.0113  0.0031  0.9520
  11.250   0.9206   0.02703   0.02123   0.0099  0.0009  0.9596
  11.500   0.9508   0.02779   0.02198   0.0076  0.0006  0.9660
  11.750   0.9822   0.02848   0.02267   0.0051  0.0005  0.9703
  12.000   1.0122   0.02927   0.02348   0.0028  0.0004  0.9736
