  
       XFOIL         Version 6.94
  
 Calculated polar for: 1080                                            
  
 1 1 Reynolds number fixed          Mach number fixed         
  
 xtrf =   1.000 (top)        1.000 (bottom)  
 Mach =   0.000     Re =     2.000 e 6     Ncrit =   9.000
  
  alpha     CL        CD       CDp       CM    Top_Xtr Bot_Xtr
 ------- -------- --------- --------- -------- ------- -------
   6.000   1.3950   0.00826   0.00434  -0.1395  0.5387  0.7857
   6.050   1.3993   0.00826   0.00434  -0.1393  0.5386  0.7859
   6.100   1.4039   0.00826   0.00434  -0.1392  0.5385  0.7860
   6.150   1.4082   0.00826   0.00434  -0.1391  0.5384  0.7861
   6.200   1.4126   0.00825   0.00434  -0.1389  0.5383  0.7862
   6.250   1.4170   0.00825   0.00435  -0.1388  0.5381  0.7864
   6.300   1.4214   0.00825   0.00435  -0.1386  0.5380  0.7865
   6.350   1.4259   0.00825   0.00435  -0.1385  0.5378  0.7866
   6.400   1.4304   0.00825   0.00436  -0.1384  0.5377  0.7867
   6.450   1.4348   0.00825   0.00437  -0.1383  0.5375  0.7869
   6.500   1.4393   0.00825   0.00437  -0.1381  0.5373  0.7870
   6.550   1.4438   0.00825   0.00438  -0.1380  0.5371  0.7871
   6.600   1.4484   0.00826   0.00438  -0.1379  0.5369  0.7873
   6.650   1.4528   0.00825   0.00439  -0.1378  0.5367  0.7874
   6.700   1.4575   0.00826   0.00440  -0.1377  0.5365  0.7875
   6.750   1.4621   0.00826   0.00441  -0.1376  0.5363  0.7876
   6.800   1.4666   0.00826   0.00441  -0.1375  0.5360  0.7878
   6.850   1.4712   0.00827   0.00442  -0.1374  0.5358  0.7879
   6.900   1.4758   0.00827   0.00442  -0.1373  0.5355  0.7880
   6.950   1.4804   0.00827   0.00443  -0.1373  0.5352  0.7881
   7.000   1.4850   0.00828   0.00444  -0.1372  0.5350  0.7883
   7.050   1.4897   0.00828   0.00445  -0.1371  0.5347  0.7884
   7.100   1.4942   0.00829   0.00446  -0.1370  0.5344  0.7885
   7.150   1.4987   0.00829   0.00446  -0.1369  0.5341  0.7886
   7.200   1.5032   0.00829   0.00447  -0.1368  0.5338  0.7888
   7.250   1.5077   0.00830   0.00448  -0.1367  0.5336  0.7889
   7.300   1.5122   0.00830   0.00449  -0.1366  0.5332  0.7890
   7.350   1.5166   0.00831   0.00450  -0.1365  0.5329  0.7892
   7.400   1.5211   0.00832   0.00451  -0.1363  0.5326  0.7893
   7.450   1.5254   0.00832   0.00453  -0.1362  0.5323  0.7894
   7.500   1.5300   0.00833   0.00454  -0.1361  0.5321  0.7896
   7.550   1.5345   0.00833   0.00455  -0.1360  0.5317  0.7897
   7.600   1.5389   0.00834   0.00456  -0.1359  0.5313  0.7898
   7.650   1.5434   0.00835   0.00457  -0.1358  0.5311  0.7899
   7.700   1.5478   0.00835   0.00458  -0.1357  0.5307  0.7901
   7.750   1.5522   0.00836   0.00459  -0.1356  0.5304  0.7902
   7.800   1.5567   0.00837   0.00461  -0.1355  0.5300  0.7903
   7.850   1.5609   0.00837   0.00461  -0.1353  0.5295  0.7905
   7.900   1.5653   0.00838   0.00463  -0.1352  0.5292  0.7906
   7.950   1.5695   0.00839   0.00464  -0.1350  0.5288  0.7908
   8.000   1.5737   0.00840   0.00465  -0.1349  0.5283  0.7909
   8.050   1.5779   0.00842   0.00466  -0.1347  0.5279  0.7910
   8.100   1.5820   0.00843   0.00468  -0.1345  0.5274  0.7912
   8.150   1.5858   0.00844   0.00469  -0.1343  0.5269  0.7913
   8.200   1.5896   0.00846   0.00471  -0.1341  0.5265  0.7915
   8.250   1.5931   0.00848   0.00473  -0.1338  0.5260  0.7916
   8.300   1.5967   0.00850   0.00476  -0.1335  0.5255  0.7918
   8.350   1.6003   0.00853   0.00478  -0.1333  0.5250  0.7919
   8.400   1.6038   0.00855   0.00481  -0.1330  0.5244  0.7921
   8.450   1.6073   0.00858   0.00483  -0.1327  0.5237  0.7923
   8.500   1.6111   0.00861   0.00486  -0.1325  0.5231  0.7924
   8.550   1.6149   0.00864   0.00490  -0.1323  0.5223  0.7926
   8.600   1.6188   0.00867   0.00493  -0.1321  0.5216  0.7927
   8.650   1.6231   0.00871   0.00497  -0.1320  0.5210  0.7929
   8.700   1.6273   0.00875   0.00500  -0.1319  0.5202  0.7930
   8.750   1.6318   0.00876   0.00503  -0.1318  0.5199  0.7931
   8.800   1.6362   0.00877   0.00505  -0.1317  0.5198  0.7933
   8.850   1.6406   0.00879   0.00507  -0.1316  0.5196  0.7934
   8.900   1.6451   0.00880   0.00509  -0.1315  0.5195  0.7936
   8.950   1.6495   0.00881   0.00511  -0.1314  0.5192  0.7937
   9.000   1.6540   0.00882   0.00513  -0.1313  0.5190  0.7939
   9.050   1.6585   0.00884   0.00516  -0.1313  0.5188  0.7940
   9.100   1.6629   0.00885   0.00518  -0.1312  0.5185  0.7942
   9.150   1.6675   0.00886   0.00520  -0.1311  0.5182  0.7943
   9.200   1.6720   0.00888   0.00522  -0.1311  0.5179  0.7945
   9.250   1.6765   0.00889   0.00525  -0.1310  0.5176  0.7946
   9.300   1.6810   0.00891   0.00527  -0.1309  0.5172  0.7948
   9.350   1.6855   0.00892   0.00529  -0.1309  0.5169  0.7949
   9.400   1.6900   0.00894   0.00532  -0.1308  0.5164  0.7950
   9.450   1.6945   0.00895   0.00534  -0.1308  0.5159  0.7952
   9.500   1.6990   0.00897   0.00536  -0.1307  0.5154  0.7953
   9.550   1.7035   0.00898   0.00539  -0.1306  0.5149  0.7955
   9.600   1.7079   0.00900   0.00541  -0.1305  0.5143  0.7956
   9.650   1.7122   0.00902   0.00543  -0.1304  0.5136  0.7958
   9.700   1.7163   0.00904   0.00546  -0.1303  0.5130  0.7959
   9.750   1.7200   0.00906   0.00549  -0.1301  0.5121  0.7961
   9.800   1.7235   0.00909   0.00552  -0.1298  0.5113  0.7962
   9.850   1.7269   0.00912   0.00555  -0.1296  0.5105  0.7964
   9.900   1.7300   0.00915   0.00558  -0.1292  0.5096  0.7966
   9.950   1.7330   0.00919   0.00562  -0.1289  0.5086  0.7967
  10.000   1.7359   0.00923   0.00566  -0.1285  0.5077  0.7969
  10.050   1.7385   0.00927   0.00570  -0.1281  0.5067  0.7970
  10.100   1.7407   0.00932   0.00575  -0.1276  0.5055  0.7972
  10.150   1.7429   0.00938   0.00580  -0.1271  0.5045  0.7974
  10.200   1.7447   0.00944   0.00586  -0.1266  0.5033  0.7975
  10.250   1.7462   0.00951   0.00593  -0.1260  0.5021  0.7977
  10.300   1.7470   0.00959   0.00601  -0.1252  0.5007  0.7979
  10.350   1.7492   0.00965   0.00608  -0.1248  0.4998  0.7980
  10.400   1.7534   0.00968   0.00611  -0.1247  0.4991  0.7981
  10.450   1.7573   0.00971   0.00616  -0.1245  0.4987  0.7983
  10.500   1.7611   0.00975   0.00620  -0.1244  0.4978  0.7984
  10.550   1.7648   0.00979   0.00626  -0.1242  0.4969  0.7985
  10.600   1.7683   0.00983   0.00631  -0.1240  0.4960  0.7987
  10.650   1.7716   0.00988   0.00636  -0.1237  0.4949  0.7988
  10.700   1.7746   0.00993   0.00642  -0.1234  0.4937  0.7989
  10.750   1.7773   0.00999   0.00648  -0.1231  0.4923  0.7990
  10.800   1.7788   0.01008   0.00656  -0.1225  0.4901  0.7992
  10.850   1.7794   0.01018   0.00666  -0.1218  0.4883  0.7993
  10.900   1.7792   0.01030   0.00677  -0.1209  0.4865  0.7994
  10.950   1.7776   0.01045   0.00691  -0.1198  0.4843  0.7996
  11.000   1.7747   0.01064   0.00709  -0.1185  0.4816  0.7997
  11.050   1.7736   0.01080   0.00725  -0.1175  0.4797  0.7998
  11.100   1.7747   0.01091   0.00736  -0.1169  0.4778  0.7999
  11.150   1.7761   0.01101   0.00747  -0.1164  0.4764  0.8002
  11.200   1.7752   0.01118   0.00762  -0.1155  0.4734  0.8008
  11.250   1.7746   0.01134   0.00778  -0.1146  0.4710  0.8013
  11.300   1.7725   0.01154   0.00798  -0.1135  0.4688  0.8019
  11.350   1.7630   0.01196   0.00839  -0.1112  0.4644  0.8027
  11.400   1.7560   0.01234   0.00875  -0.1094  0.4614  0.8034
  11.450   1.7536   0.01258   0.00900  -0.1084  0.4596  0.8040
  11.500   1.7518   0.01282   0.00924  -0.1074  0.4569  0.8045
  11.550   1.7472   0.01316   0.00958  -0.1060  0.4538  0.8052
  11.600   1.7433   0.01349   0.00991  -0.1048  0.4512  0.8058
  11.650   1.7371   0.01392   0.01033  -0.1033  0.4484  0.8064
  11.700   1.7305   0.01438   0.01079  -0.1017  0.4460  0.8070
  11.750   1.7190   0.01507   0.01148  -0.0995  0.4428  0.8077
  11.800   1.7102   0.01569   0.01209  -0.0978  0.4400  0.8082
  11.850   1.7073   0.01607   0.01248  -0.0968  0.4380  0.8087
  11.900   1.7036   0.01649   0.01290  -0.0958  0.4356  0.8092
  11.950   1.6966   0.01708   0.01350  -0.0944  0.4329  0.8097
  12.000   1.6875   0.01779   0.01421  -0.0927  0.4297  0.8102
