  
       XFOIL         Version 6.94
  
 Calculated polar for: 1080                                            
  
 1 1 Reynolds number fixed          Mach number fixed         
  
 xtrf =   1.000 (top)        1.000 (bottom)  
 Mach =   0.000     Re =     2.000 e 6     Ncrit =   9.000
  
  alpha     CL        CD       CDp       CM    Top_Xtr Bot_Xtr
 ------- -------- --------- --------- -------- ------- -------
   6.000   1.4351   0.00837   0.00444  -0.1475  0.5385  0.7876
   6.050   1.4397   0.00837   0.00445  -0.1474  0.5384  0.7877
   6.100   1.4442   0.00837   0.00446  -0.1472  0.5383  0.7878
   6.150   1.4487   0.00837   0.00446  -0.1471  0.5381  0.7879
   6.200   1.4532   0.00837   0.00446  -0.1470  0.5380  0.7880
   6.250   1.4576   0.00837   0.00447  -0.1469  0.5379  0.7882
   6.300   1.4620   0.00837   0.00447  -0.1467  0.5377  0.7883
   6.350   1.4665   0.00837   0.00448  -0.1466  0.5376  0.7884
   6.400   1.4709   0.00837   0.00448  -0.1465  0.5374  0.7885
   6.450   1.4754   0.00837   0.00449  -0.1464  0.5373  0.7886
   6.500   1.4798   0.00837   0.00449  -0.1462  0.5371  0.7887
   6.550   1.4843   0.00837   0.00449  -0.1461  0.5369  0.7888
   6.600   1.4888   0.00837   0.00450  -0.1460  0.5367  0.7889
   6.650   1.4933   0.00837   0.00451  -0.1459  0.5365  0.7891
   6.700   1.4978   0.00838   0.00451  -0.1458  0.5363  0.7892
   6.750   1.5023   0.00838   0.00452  -0.1456  0.5360  0.7893
   6.800   1.5069   0.00838   0.00453  -0.1456  0.5358  0.7894
   6.850   1.5114   0.00838   0.00453  -0.1455  0.5356  0.7895
   6.900   1.5161   0.00839   0.00454  -0.1454  0.5354  0.7896
   6.950   1.5207   0.00839   0.00455  -0.1453  0.5351  0.7898
   7.000   1.5253   0.00839   0.00455  -0.1452  0.5349  0.7899
   7.050   1.5299   0.00840   0.00456  -0.1451  0.5346  0.7900
   7.100   1.5345   0.00840   0.00457  -0.1450  0.5343  0.7901
   7.150   1.5391   0.00841   0.00458  -0.1450  0.5341  0.7902
   7.200   1.5438   0.00841   0.00459  -0.1449  0.5338  0.7903
   7.250   1.5484   0.00841   0.00459  -0.1448  0.5335  0.7905
   7.300   1.5529   0.00842   0.00460  -0.1447  0.5332  0.7906
   7.350   1.5575   0.00842   0.00461  -0.1446  0.5329  0.7907
   7.400   1.5619   0.00843   0.00462  -0.1445  0.5326  0.7908
   7.450   1.5664   0.00843   0.00463  -0.1444  0.5323  0.7910
   7.500   1.5709   0.00844   0.00465  -0.1443  0.5320  0.7911
   7.550   1.5753   0.00844   0.00466  -0.1442  0.5317  0.7912
   7.600   1.5797   0.00845   0.00467  -0.1441  0.5314  0.7914
   7.650   1.5841   0.00845   0.00468  -0.1439  0.5311  0.7915
   7.700   1.5885   0.00846   0.00469  -0.1438  0.5308  0.7916
   7.750   1.5928   0.00847   0.00470  -0.1437  0.5304  0.7917
   7.800   1.5972   0.00847   0.00471  -0.1436  0.5301  0.7919
   7.850   1.6016   0.00848   0.00472  -0.1435  0.5298  0.7920
   7.900   1.6059   0.00849   0.00473  -0.1433  0.5294  0.7921
   7.950   1.6102   0.00850   0.00474  -0.1432  0.5290  0.7923
   8.000   1.6144   0.00851   0.00475  -0.1430  0.5286  0.7924
   8.050   1.6186   0.00852   0.00476  -0.1429  0.5282  0.7926
   8.100   1.6228   0.00853   0.00478  -0.1427  0.5278  0.7927
   8.150   1.6269   0.00854   0.00479  -0.1426  0.5274  0.7928
   8.200   1.6308   0.00856   0.00481  -0.1424  0.5268  0.7930
   8.250   1.6348   0.00857   0.00482  -0.1422  0.5264  0.7931
   8.300   1.6387   0.00859   0.00484  -0.1420  0.5259  0.7933
   8.350   1.6423   0.00861   0.00486  -0.1417  0.5253  0.7934
   8.400   1.6459   0.00864   0.00489  -0.1414  0.5248  0.7936
   8.450   1.6495   0.00866   0.00492  -0.1412  0.5242  0.7937
   8.500   1.6531   0.00869   0.00494  -0.1409  0.5236  0.7939
   8.550   1.6567   0.00872   0.00497  -0.1407  0.5229  0.7940
   8.600   1.6606   0.00875   0.00501  -0.1405  0.5223  0.7942
   8.650   1.6646   0.00879   0.00505  -0.1403  0.5216  0.7943
   8.700   1.6688   0.00882   0.00508  -0.1402  0.5210  0.7945
   8.750   1.6731   0.00886   0.00512  -0.1401  0.5203  0.7946
   8.800   1.6774   0.00888   0.00514  -0.1400  0.5199  0.7947
   8.850   1.6817   0.00889   0.00516  -0.1398  0.5198  0.7949
   8.900   1.6860   0.00890   0.00518  -0.1397  0.5196  0.7950
   8.950   1.6904   0.00891   0.00520  -0.1396  0.5195  0.7951
   9.000   1.6948   0.00892   0.00523  -0.1395  0.5193  0.7953
   9.050   1.6991   0.00893   0.00524  -0.1394  0.5190  0.7954
   9.100   1.7036   0.00895   0.00527  -0.1394  0.5189  0.7956
   9.150   1.7080   0.00896   0.00529  -0.1393  0.5186  0.7957
   9.200   1.7125   0.00897   0.00531  -0.1392  0.5184  0.7958
   9.250   1.7170   0.00899   0.00534  -0.1391  0.5181  0.7960
   9.300   1.7214   0.00900   0.00536  -0.1391  0.5178  0.7961
   9.350   1.7259   0.00902   0.00538  -0.1390  0.5174  0.7963
   9.400   1.7304   0.00903   0.00541  -0.1389  0.5170  0.7964
   9.450   1.7349   0.00905   0.00543  -0.1389  0.5167  0.7965
   9.500   1.7394   0.00906   0.00545  -0.1388  0.5162  0.7967
   9.550   1.7439   0.00908   0.00548  -0.1388  0.5158  0.7968
   9.600   1.7484   0.00909   0.00550  -0.1387  0.5153  0.7969
   9.650   1.7528   0.00911   0.00552  -0.1386  0.5146  0.7971
   9.700   1.7573   0.00913   0.00555  -0.1386  0.5143  0.7972
   9.750   1.7617   0.00915   0.00557  -0.1385  0.5136  0.7973
   9.800   1.7659   0.00916   0.00560  -0.1384  0.5129  0.7974
   9.850   1.7700   0.00918   0.00562  -0.1382  0.5121  0.7976
   9.900   1.7740   0.00921   0.00565  -0.1381  0.5114  0.7977
   9.950   1.7776   0.00923   0.00568  -0.1378  0.5106  0.7978
  10.000   1.7808   0.00926   0.00571  -0.1375  0.5097  0.7980
  10.050   1.7838   0.00930   0.00574  -0.1372  0.5088  0.7981
  10.100   1.7867   0.00934   0.00578  -0.1369  0.5080  0.7983
  10.150   1.7893   0.00938   0.00582  -0.1364  0.5071  0.7984
  10.200   1.7916   0.00943   0.00587  -0.1360  0.5061  0.7985
  10.250   1.7937   0.00948   0.00592  -0.1355  0.5050  0.7987
  10.300   1.7955   0.00954   0.00598  -0.1349  0.5038  0.7988
  10.350   1.7972   0.00961   0.00605  -0.1343  0.5026  0.7989
  10.400   1.7987   0.00968   0.00612  -0.1337  0.5013  0.7991
  10.450   1.8002   0.00975   0.00619  -0.1331  0.5002  0.7992
  10.500   1.8039   0.00979   0.00624  -0.1330  0.4996  0.7993
  10.550   1.8081   0.00982   0.00629  -0.1329  0.4989  0.7994
  10.600   1.8119   0.00986   0.00633  -0.1327  0.4983  0.7995
  10.650   1.8156   0.00989   0.00638  -0.1325  0.4976  0.7996
  10.700   1.8191   0.00994   0.00643  -0.1323  0.4967  0.7997
  10.750   1.8224   0.00998   0.00648  -0.1321  0.4957  0.7998
  10.800   1.8254   0.01003   0.00654  -0.1318  0.4945  0.7999
  10.850   1.8283   0.01009   0.00660  -0.1314  0.4932  0.7999
  10.900   1.8305   0.01016   0.00666  -0.1310  0.4915  0.8002
  10.950   1.8327   0.01022   0.00673  -0.1305  0.4901  0.8006
  11.000   1.8332   0.01033   0.00683  -0.1298  0.4879  0.8011
  11.050   1.8334   0.01043   0.00694  -0.1290  0.4863  0.8016
  11.100   1.8310   0.01060   0.00709  -0.1278  0.4840  0.8022
  11.150   1.8286   0.01078   0.00727  -0.1266  0.4817  0.8028
  11.200   1.8273   0.01094   0.00742  -0.1256  0.4792  0.8034
  11.250   1.8283   0.01105   0.00754  -0.1249  0.4773  0.8038
  11.300   1.8292   0.01117   0.00766  -0.1243  0.4757  0.8043
  11.350   1.8288   0.01132   0.00781  -0.1235  0.4734  0.8048
  11.400   1.8274   0.01150   0.00799  -0.1225  0.4708  0.8053
  11.450   1.8225   0.01179   0.00827  -0.1209  0.4674  0.8059
  11.500   1.8179   0.01208   0.00855  -0.1195  0.4650  0.8065
  11.550   1.8086   0.01253   0.00899  -0.1173  0.4613  0.8072
  11.600   1.8062   0.01278   0.00925  -0.1162  0.4596  0.8077
  11.650   1.8039   0.01304   0.00950  -0.1152  0.4568  0.8082
  11.700   1.8020   0.01329   0.00976  -0.1143  0.4548  0.8086
  11.750   1.7977   0.01364   0.01011  -0.1130  0.4522  0.8091
  11.800   1.7896   0.01415   0.01061  -0.1112  0.4487  0.8096
  11.850   1.7823   0.01465   0.01111  -0.1095  0.4463  0.8102
  11.900   1.7726   0.01528   0.01174  -0.1076  0.4436  0.8108
  11.950   1.7582   0.01617   0.01262  -0.1052  0.4397  0.8114
  12.000   1.7575   0.01646   0.01292  -0.1045  0.4386  0.8118
