  
       XFOIL         Version 6.94
  
 Calculated polar for: 1080                                            
  
 1 1 Reynolds number fixed          Mach number fixed         
  
 xtrf =   1.000 (top)        1.000 (bottom)  
 Mach =   0.000     Re =     2.000 e 6     Ncrit =   9.000
  
  alpha     CL        CD       CDp       CM    Top_Xtr Bot_Xtr
 ------- -------- --------- --------- -------- ------- -------
   6.000   1.3794   0.00835   0.00441  -0.1361  0.5386  0.7831
   6.050   1.3839   0.00835   0.00442  -0.1360  0.5385  0.7833
   6.100   1.3885   0.00836   0.00443  -0.1359  0.5384  0.7834
   6.150   1.3931   0.00836   0.00444  -0.1358  0.5383  0.7836
   6.200   1.3978   0.00836   0.00445  -0.1357  0.5382  0.7837
   6.250   1.4023   0.00836   0.00445  -0.1356  0.5380  0.7839
   6.300   1.4069   0.00837   0.00446  -0.1355  0.5379  0.7840
   6.350   1.4115   0.00837   0.00447  -0.1354  0.5378  0.7842
   6.400   1.4162   0.00837   0.00448  -0.1353  0.5376  0.7843
   6.450   1.4208   0.00838   0.00449  -0.1352  0.5374  0.7844
   6.500   1.4254   0.00838   0.00449  -0.1352  0.5373  0.7846
   6.550   1.4300   0.00838   0.00450  -0.1351  0.5371  0.7847
   6.600   1.4346   0.00839   0.00451  -0.1350  0.5369  0.7849
   6.650   1.4391   0.00839   0.00452  -0.1349  0.5367  0.7850
   6.700   1.4437   0.00840   0.00453  -0.1348  0.5365  0.7852
   6.750   1.4482   0.00840   0.00454  -0.1347  0.5363  0.7853
   6.800   1.4526   0.00840   0.00454  -0.1346  0.5361  0.7855
   6.850   1.4570   0.00841   0.00455  -0.1344  0.5359  0.7856
   6.900   1.4615   0.00841   0.00456  -0.1343  0.5357  0.7857
   6.950   1.4659   0.00842   0.00457  -0.1342  0.5354  0.7859
   7.000   1.4704   0.00842   0.00458  -0.1341  0.5352  0.7860
   7.050   1.4748   0.00843   0.00459  -0.1340  0.5349  0.7862
   7.100   1.4792   0.00843   0.00460  -0.1339  0.5346  0.7863
   7.150   1.4837   0.00844   0.00461  -0.1338  0.5343  0.7865
   7.200   1.4882   0.00844   0.00461  -0.1336  0.5340  0.7866
   7.250   1.4927   0.00845   0.00462  -0.1335  0.5338  0.7867
   7.300   1.4972   0.00845   0.00463  -0.1335  0.5335  0.7869
   7.350   1.5017   0.00846   0.00464  -0.1334  0.5332  0.7870
   7.400   1.5062   0.00846   0.00465  -0.1332  0.5328  0.7872
   7.450   1.5108   0.00847   0.00466  -0.1332  0.5326  0.7873
   7.500   1.5153   0.00847   0.00468  -0.1331  0.5323  0.7875
   7.550   1.5198   0.00848   0.00469  -0.1330  0.5320  0.7876
   7.600   1.5244   0.00849   0.00470  -0.1329  0.5317  0.7877
   7.650   1.5289   0.00849   0.00471  -0.1328  0.5314  0.7879
   7.700   1.5334   0.00850   0.00473  -0.1327  0.5311  0.7880
   7.750   1.5377   0.00851   0.00473  -0.1326  0.5307  0.7882
   7.800   1.5419   0.00851   0.00475  -0.1324  0.5304  0.7883
   7.850   1.5461   0.00852   0.00476  -0.1323  0.5301  0.7884
   7.900   1.5502   0.00854   0.00477  -0.1321  0.5297  0.7886
   7.950   1.5543   0.00855   0.00479  -0.1320  0.5294  0.7887
   8.000   1.5584   0.00856   0.00480  -0.1318  0.5290  0.7889
   8.050   1.5624   0.00857   0.00482  -0.1316  0.5286  0.7890
   8.100   1.5663   0.00858   0.00483  -0.1314  0.5282  0.7892
   8.150   1.5701   0.00860   0.00484  -0.1312  0.5277  0.7893
   8.200   1.5740   0.00861   0.00486  -0.1310  0.5273  0.7895
   8.250   1.5778   0.00863   0.00488  -0.1307  0.5268  0.7896
   8.300   1.5816   0.00865   0.00490  -0.1305  0.5263  0.7898
   8.350   1.5852   0.00867   0.00492  -0.1303  0.5258  0.7899
   8.400   1.5888   0.00869   0.00494  -0.1300  0.5251  0.7901
   8.450   1.5927   0.00872   0.00497  -0.1298  0.5247  0.7902
   8.500   1.5962   0.00874   0.00500  -0.1296  0.5239  0.7904
   8.550   1.6001   0.00877   0.00503  -0.1294  0.5233  0.7905
   8.600   1.6041   0.00881   0.00506  -0.1292  0.5228  0.7907
   8.650   1.6082   0.00884   0.00510  -0.1290  0.5221  0.7908
   8.700   1.6123   0.00887   0.00513  -0.1289  0.5214  0.7910
   8.750   1.6166   0.00891   0.00517  -0.1288  0.5207  0.7911
   8.800   1.6210   0.00895   0.00520  -0.1287  0.5200  0.7913
   8.850   1.6254   0.00896   0.00522  -0.1286  0.5199  0.7914
   8.900   1.6297   0.00897   0.00524  -0.1285  0.5197  0.7916
   8.950   1.6340   0.00898   0.00527  -0.1284  0.5195  0.7917
   9.000   1.6384   0.00900   0.00529  -0.1284  0.5194  0.7919
   9.050   1.6427   0.00901   0.00531  -0.1282  0.5192  0.7920
   9.100   1.6470   0.00902   0.00534  -0.1281  0.5189  0.7922
   9.150   1.6513   0.00904   0.00536  -0.1280  0.5188  0.7923
   9.200   1.6554   0.00906   0.00539  -0.1279  0.5185  0.7925
   9.250   1.6595   0.00908   0.00542  -0.1278  0.5182  0.7926
   9.300   1.6636   0.00910   0.00545  -0.1276  0.5179  0.7928
   9.350   1.6676   0.00912   0.00547  -0.1275  0.5176  0.7929
   9.400   1.6716   0.00914   0.00550  -0.1273  0.5172  0.7931
   9.450   1.6757   0.00916   0.00553  -0.1272  0.5168  0.7933
   9.500   1.6798   0.00918   0.00556  -0.1270  0.5165  0.7934
   9.550   1.6840   0.00920   0.00559  -0.1269  0.5161  0.7936
   9.600   1.6881   0.00922   0.00562  -0.1268  0.5156  0.7937
   9.650   1.6923   0.00924   0.00564  -0.1267  0.5151  0.7939
   9.700   1.6964   0.00926   0.00567  -0.1266  0.5146  0.7941
   9.750   1.7006   0.00928   0.00570  -0.1264  0.5141  0.7942
   9.800   1.7046   0.00930   0.00573  -0.1263  0.5133  0.7944
   9.850   1.7086   0.00933   0.00576  -0.1261  0.5127  0.7945
   9.900   1.7124   0.00935   0.00579  -0.1260  0.5119  0.7947
   9.950   1.7162   0.00938   0.00582  -0.1258  0.5112  0.7949
  10.000   1.7195   0.00941   0.00585  -0.1255  0.5102  0.7950
  10.050   1.7229   0.00945   0.00589  -0.1253  0.5095  0.7952
  10.100   1.7256   0.00949   0.00594  -0.1249  0.5086  0.7954
  10.150   1.7280   0.00954   0.00598  -0.1244  0.5077  0.7956
  10.200   1.7302   0.00960   0.00604  -0.1240  0.5068  0.7957
  10.250   1.7320   0.00966   0.00610  -0.1234  0.5058  0.7959
  10.300   1.7334   0.00973   0.00617  -0.1228  0.5046  0.7961
  10.350   1.7350   0.00980   0.00624  -0.1222  0.5036  0.7963
  10.400   1.7358   0.00989   0.00632  -0.1216  0.5022  0.7965
  10.450   1.7368   0.00998   0.00641  -0.1209  0.5010  0.7967
  10.500   1.7380   0.01006   0.00650  -0.1203  0.4998  0.7969
  10.550   1.7418   0.01010   0.00655  -0.1201  0.4995  0.7970
  10.600   1.7458   0.01014   0.00659  -0.1200  0.4988  0.7972
  10.650   1.7495   0.01018   0.00665  -0.1198  0.4982  0.7973
  10.700   1.7530   0.01023   0.00671  -0.1196  0.4973  0.7975
  10.750   1.7563   0.01028   0.00676  -0.1194  0.4963  0.7976
  10.800   1.7594   0.01033   0.00682  -0.1191  0.4953  0.7978
  10.850   1.7625   0.01039   0.00689  -0.1188  0.4943  0.7979
  10.900   1.7643   0.01047   0.00697  -0.1184  0.4923  0.7981
  10.950   1.7665   0.01055   0.00705  -0.1179  0.4910  0.7982
  11.000   1.7670   0.01066   0.00716  -0.1172  0.4892  0.7984
  11.050   1.7667   0.01079   0.00729  -0.1164  0.4875  0.7986
  11.100   1.7653   0.01096   0.00745  -0.1154  0.4854  0.7987
  11.150   1.7637   0.01114   0.00762  -0.1143  0.4835  0.7989
  11.200   1.7591   0.01140   0.00787  -0.1128  0.4810  0.7991
  11.250   1.7586   0.01157   0.00804  -0.1120  0.4793  0.7992
  11.300   1.7605   0.01167   0.00814  -0.1116  0.4782  0.7994
  11.350   1.7615   0.01180   0.00828  -0.1110  0.4764  0.7995
  11.400   1.7590   0.01204   0.00851  -0.1099  0.4731  0.7996
  11.450   1.7595   0.01219   0.00866  -0.1093  0.4720  0.7998
  11.500   1.7522   0.01258   0.00904  -0.1074  0.4678  0.7999
  11.600   1.7442   0.01321   0.00966  -0.1049  0.4639  0.8009
  11.650   1.7320   0.01384   0.01028  -0.1025  0.4599  0.8017
  11.700   1.7302   0.01411   0.01055  -0.1016  0.4578  0.8023
  11.750   1.7291   0.01436   0.01081  -0.1008  0.4560  0.8028
  11.800   1.7236   0.01480   0.01125  -0.0994  0.4532  0.8035
  11.850   1.7142   0.01541   0.01185  -0.0976  0.4494  0.8042
  11.900   1.7061   0.01600   0.01244  -0.0959  0.4470  0.8049
  11.950   1.6994   0.01655   0.01299  -0.0945  0.4450  0.8055
  12.000   1.6842   0.01752   0.01396  -0.0921  0.4414  0.8063
