  
       XFOIL         Version 6.94
  
 Calculated polar for: 1080                                            
  
 1 1 Reynolds number fixed          Mach number fixed         
  
 xtrf =   1.000 (top)        1.000 (bottom)  
 Mach =   0.000     Re =     2.000 e 6     Ncrit =   9.000
  
  alpha     CL        CD       CDp       CM    Top_Xtr Bot_Xtr
 ------- -------- --------- --------- -------- ------- -------
   6.000   1.4197   0.00844   0.00451  -0.1440  0.5384  0.7854
   6.050   1.4242   0.00845   0.00451  -0.1439  0.5383  0.7855
   6.100   1.4287   0.00845   0.00453  -0.1438  0.5381  0.7856
   6.150   1.4332   0.00845   0.00454  -0.1437  0.5380  0.7857
   6.200   1.4378   0.00845   0.00454  -0.1436  0.5379  0.7859
   6.250   1.4424   0.00846   0.00455  -0.1435  0.5378  0.7860
   6.300   1.4469   0.00846   0.00456  -0.1434  0.5376  0.7861
   6.350   1.4515   0.00847   0.00457  -0.1433  0.5375  0.7862
   6.400   1.4562   0.00847   0.00458  -0.1432  0.5373  0.7864
   6.450   1.4608   0.00848   0.00459  -0.1432  0.5372  0.7865
   6.500   1.4655   0.00848   0.00460  -0.1431  0.5370  0.7866
   6.550   1.4700   0.00849   0.00460  -0.1430  0.5368  0.7867
   6.600   1.4747   0.00849   0.00462  -0.1429  0.5367  0.7868
   6.650   1.4794   0.00850   0.00463  -0.1429  0.5365  0.7870
   6.700   1.4839   0.00850   0.00463  -0.1428  0.5363  0.7871
   6.750   1.4886   0.00851   0.00464  -0.1427  0.5361  0.7872
   6.800   1.4931   0.00851   0.00465  -0.1426  0.5359  0.7873
   6.850   1.4978   0.00852   0.00466  -0.1425  0.5357  0.7874
   6.900   1.5023   0.00852   0.00467  -0.1424  0.5354  0.7876
   6.950   1.5067   0.00852   0.00468  -0.1423  0.5352  0.7877
   7.000   1.5112   0.00853   0.00469  -0.1422  0.5350  0.7878
   7.050   1.5157   0.00854   0.00470  -0.1421  0.5347  0.7879
   7.100   1.5202   0.00854   0.00471  -0.1420  0.5345  0.7881
   7.150   1.5246   0.00855   0.00472  -0.1419  0.5342  0.7882
   7.200   1.5291   0.00855   0.00472  -0.1418  0.5340  0.7883
   7.250   1.5335   0.00855   0.00473  -0.1417  0.5337  0.7885
   7.300   1.5379   0.00856   0.00474  -0.1416  0.5334  0.7886
   7.350   1.5424   0.00856   0.00475  -0.1414  0.5331  0.7887
   7.400   1.5469   0.00857   0.00476  -0.1414  0.5329  0.7888
   7.450   1.5514   0.00858   0.00477  -0.1413  0.5326  0.7890
   7.500   1.5558   0.00858   0.00477  -0.1411  0.5322  0.7891
   7.550   1.5603   0.00859   0.00479  -0.1410  0.5319  0.7892
   7.600   1.5649   0.00859   0.00481  -0.1410  0.5317  0.7893
   7.650   1.5693   0.00860   0.00482  -0.1409  0.5313  0.7895
   7.700   1.5738   0.00860   0.00482  -0.1408  0.5310  0.7896
   7.750   1.5782   0.00861   0.00483  -0.1407  0.5307  0.7897
   7.800   1.5827   0.00862   0.00485  -0.1406  0.5304  0.7899
   7.850   1.5871   0.00862   0.00486  -0.1405  0.5301  0.7900
   7.900   1.5915   0.00863   0.00487  -0.1404  0.5297  0.7901
   7.950   1.5957   0.00864   0.00488  -0.1402  0.5294  0.7903
   8.000   1.5998   0.00865   0.00489  -0.1400  0.5290  0.7904
   8.050   1.6038   0.00866   0.00491  -0.1399  0.5286  0.7905
   8.100   1.6080   0.00868   0.00493  -0.1397  0.5284  0.7907
   8.150   1.6117   0.00869   0.00494  -0.1395  0.5279  0.7908
   8.200   1.6156   0.00871   0.00496  -0.1393  0.5276  0.7910
   8.250   1.6194   0.00872   0.00497  -0.1390  0.5271  0.7911
   8.300   1.6230   0.00874   0.00499  -0.1388  0.5266  0.7913
   8.350   1.6268   0.00876   0.00501  -0.1386  0.5262  0.7914
   8.400   1.6303   0.00878   0.00503  -0.1383  0.5256  0.7915
   8.450   1.6340   0.00880   0.00506  -0.1380  0.5251  0.7917
   8.500   1.6376   0.00883   0.00508  -0.1378  0.5245  0.7918
   8.550   1.6414   0.00886   0.00511  -0.1376  0.5239  0.7920
   8.600   1.6452   0.00889   0.00514  -0.1374  0.5233  0.7921
   8.650   1.6491   0.00892   0.00518  -0.1372  0.5225  0.7923
   8.700   1.6533   0.00895   0.00521  -0.1371  0.5220  0.7924
   8.750   1.6575   0.00899   0.00525  -0.1370  0.5213  0.7926
   8.800   1.6618   0.00903   0.00528  -0.1369  0.5205  0.7927
   8.850   1.6664   0.00906   0.00532  -0.1368  0.5200  0.7929
   8.900   1.6707   0.00907   0.00534  -0.1367  0.5199  0.7930
   8.950   1.6750   0.00908   0.00536  -0.1366  0.5197  0.7932
   9.000   1.6793   0.00909   0.00538  -0.1365  0.5196  0.7933
   9.050   1.6836   0.00911   0.00540  -0.1364  0.5194  0.7934
   9.100   1.6879   0.00912   0.00542  -0.1363  0.5192  0.7936
   9.150   1.6924   0.00914   0.00545  -0.1363  0.5190  0.7937
   9.200   1.6967   0.00915   0.00547  -0.1362  0.5188  0.7939
   9.250   1.7011   0.00916   0.00550  -0.1361  0.5186  0.7940
   9.300   1.7055   0.00918   0.00552  -0.1360  0.5183  0.7942
   9.350   1.7098   0.00920   0.00555  -0.1359  0.5180  0.7943
   9.400   1.7141   0.00921   0.00557  -0.1358  0.5177  0.7945
   9.450   1.7182   0.00923   0.00560  -0.1357  0.5174  0.7946
   9.500   1.7223   0.00925   0.00563  -0.1355  0.5170  0.7948
   9.550   1.7264   0.00927   0.00566  -0.1354  0.5167  0.7949
   9.600   1.7304   0.00929   0.00569  -0.1353  0.5162  0.7951
   9.650   1.7344   0.00931   0.00572  -0.1351  0.5158  0.7952
   9.700   1.7384   0.00934   0.00575  -0.1350  0.5155  0.7954
   9.750   1.7425   0.00936   0.00577  -0.1348  0.5149  0.7955
   9.800   1.7466   0.00938   0.00580  -0.1347  0.5145  0.7957
   9.850   1.7506   0.00940   0.00583  -0.1346  0.5140  0.7958
   9.900   1.7546   0.00943   0.00586  -0.1344  0.5134  0.7960
   9.950   1.7585   0.00945   0.00589  -0.1343  0.5127  0.7961
  10.000   1.7624   0.00948   0.00592  -0.1341  0.5122  0.7963
  10.050   1.7662   0.00950   0.00596  -0.1339  0.5115  0.7964
  10.100   1.7694   0.00953   0.00599  -0.1336  0.5104  0.7966
  10.150   1.7730   0.00957   0.00602  -0.1334  0.5096  0.7967
  10.200   1.7764   0.00960   0.00606  -0.1332  0.5090  0.7969
  10.250   1.7794   0.00964   0.00610  -0.1328  0.5081  0.7970
  10.300   1.7817   0.00969   0.00615  -0.1324  0.5071  0.7972
  10.350   1.7834   0.00975   0.00621  -0.1318  0.5061  0.7974
  10.400   1.7849   0.00982   0.00628  -0.1312  0.5051  0.7975
  10.450   1.7861   0.00990   0.00635  -0.1306  0.5040  0.7977
  10.500   1.7871   0.00998   0.00643  -0.1299  0.5028  0.7979
  10.550   1.7881   0.01007   0.00652  -0.1293  0.5015  0.7980
  10.600   1.7895   0.01015   0.00660  -0.1287  0.5005  0.7982
  10.650   1.7925   0.01021   0.00667  -0.1284  0.4997  0.7983
  10.700   1.7965   0.01024   0.00672  -0.1283  0.4992  0.7985
  10.750   1.8003   0.01028   0.00677  -0.1281  0.4986  0.7986
  10.800   1.8039   0.01032   0.00682  -0.1280  0.4980  0.7987
  10.850   1.8073   0.01037   0.00688  -0.1277  0.4973  0.7988
  10.900   1.8103   0.01043   0.00694  -0.1274  0.4960  0.7989
  10.950   1.8133   0.01048   0.00700  -0.1271  0.4950  0.7991
  11.000   1.8159   0.01055   0.00707  -0.1268  0.4938  0.7992
  11.050   1.8183   0.01062   0.00714  -0.1264  0.4925  0.7993
  11.100   1.8199   0.01071   0.00723  -0.1259  0.4907  0.7994
  11.150   1.8209   0.01082   0.00734  -0.1253  0.4890  0.7995
  11.200   1.8204   0.01096   0.00747  -0.1244  0.4872  0.7997
  11.250   1.8187   0.01113   0.00764  -0.1233  0.4853  0.7998
  11.300   1.8159   0.01134   0.00784  -0.1221  0.4830  0.7999
  11.350   1.8129   0.01156   0.00806  -0.1209  0.4809  0.8003
  11.400   1.8122   0.01173   0.00823  -0.1200  0.4793  0.8008
  11.450   1.8135   0.01185   0.00835  -0.1195  0.4779  0.8013
  11.500   1.8142   0.01199   0.00849  -0.1189  0.4761  0.8018
  11.550   1.8131   0.01218   0.00869  -0.1180  0.4734  0.8023
  11.600   1.8130   0.01235   0.00886  -0.1173  0.4720  0.8028
  11.650   1.8069   0.01270   0.00921  -0.1156  0.4685  0.8035
  11.700   1.8029   0.01301   0.00951  -0.1143  0.4663  0.8041
  11.750   1.7928   0.01355   0.01004  -0.1122  0.4630  0.8049
  11.800   1.7869   0.01396   0.01045  -0.1107  0.4608  0.8055
  11.850   1.7832   0.01431   0.01080  -0.1096  0.4587  0.8061
  11.900   1.7814   0.01460   0.01109  -0.1087  0.4566  0.8066
  11.950   1.7742   0.01512   0.01161  -0.1071  0.4532  0.8072
  12.000   1.7637   0.01580   0.01229  -0.1051  0.4494  0.8078
