  
       XFOIL         Version 6.94
  
 Calculated polar for: 1080                                            
  
 1 1 Reynolds number fixed          Mach number fixed         
  
 xtrf =   1.000 (top)        1.000 (bottom)  
 Mach =   0.000     Re =     2.000 e 6     Ncrit =   9.000
  
  alpha     CL        CD       CDp       CM    Top_Xtr Bot_Xtr
 ------- -------- --------- --------- -------- ------- -------
   6.000   1.3324   0.00793   0.00401  -0.1276  0.5392  0.7841
   6.050   1.3369   0.00793   0.00400  -0.1274  0.5390  0.7843
   6.100   1.3414   0.00792   0.00400  -0.1273  0.5389  0.7845
   6.150   1.3456   0.00791   0.00400  -0.1271  0.5388  0.7847
   6.200   1.3500   0.00791   0.00400  -0.1269  0.5386  0.7849
   6.250   1.3541   0.00790   0.00400  -0.1267  0.5384  0.7850
   6.300   1.3584   0.00789   0.00399  -0.1265  0.5383  0.7852
   6.350   1.3628   0.00789   0.00400  -0.1264  0.5381  0.7854
   6.400   1.3672   0.00788   0.00400  -0.1262  0.5379  0.7856
   6.450   1.3715   0.00788   0.00400  -0.1261  0.5377  0.7858
   6.500   1.3760   0.00788   0.00400  -0.1259  0.5375  0.7860
   6.550   1.3805   0.00788   0.00401  -0.1258  0.5373  0.7861
   6.600   1.3850   0.00788   0.00401  -0.1257  0.5370  0.7863
   6.650   1.3895   0.00788   0.00402  -0.1256  0.5368  0.7865
   6.700   1.3940   0.00788   0.00402  -0.1254  0.5365  0.7866
   6.750   1.3986   0.00788   0.00403  -0.1253  0.5362  0.7868
   6.800   1.4032   0.00788   0.00404  -0.1252  0.5360  0.7869
   6.850   1.4079   0.00789   0.00405  -0.1252  0.5357  0.7871
   6.900   1.4126   0.00789   0.00406  -0.1251  0.5355  0.7872
   6.950   1.4173   0.00790   0.00407  -0.1250  0.5352  0.7873
   7.000   1.4219   0.00790   0.00407  -0.1249  0.5348  0.7875
   7.050   1.4265   0.00790   0.00408  -0.1248  0.5345  0.7876
   7.100   1.4312   0.00791   0.00409  -0.1247  0.5342  0.7878
   7.150   1.4359   0.00791   0.00410  -0.1247  0.5338  0.7879
   7.250   1.4451   0.00792   0.00413  -0.1245  0.5331  0.7882
   7.300   1.4497   0.00792   0.00414  -0.1244  0.5328  0.7883
   7.350   1.4542   0.00793   0.00415  -0.1243  0.5324  0.7885
   7.400   1.4587   0.00793   0.00416  -0.1241  0.5321  0.7886
   7.450   1.4631   0.00794   0.00416  -0.1240  0.5316  0.7888
   7.500   1.4676   0.00795   0.00417  -0.1239  0.5313  0.7889
   7.550   1.4721   0.00795   0.00419  -0.1238  0.5309  0.7891
   7.600   1.4765   0.00796   0.00420  -0.1237  0.5305  0.7892
   7.650   1.4808   0.00797   0.00421  -0.1235  0.5301  0.7894
   7.700   1.4852   0.00798   0.00422  -0.1234  0.5296  0.7895
   7.750   1.4895   0.00799   0.00423  -0.1232  0.5292  0.7896
   7.800   1.4938   0.00800   0.00425  -0.1231  0.5288  0.7898
   7.850   1.4979   0.00801   0.00426  -0.1229  0.5282  0.7899
   7.900   1.5020   0.00802   0.00427  -0.1227  0.5277  0.7901
   7.950   1.5064   0.00804   0.00429  -0.1226  0.5274  0.7902
   8.000   1.5103   0.00805   0.00430  -0.1223  0.5267  0.7904
   8.050   1.5141   0.00807   0.00432  -0.1221  0.5261  0.7906
   8.100   1.5180   0.00809   0.00434  -0.1219  0.5256  0.7907
   8.150   1.5217   0.00811   0.00436  -0.1216  0.5250  0.7909
   8.200   1.5254   0.00814   0.00439  -0.1214  0.5243  0.7910
   8.250   1.5290   0.00816   0.00441  -0.1211  0.5237  0.7912
   8.300   1.5328   0.00819   0.00444  -0.1209  0.5231  0.7913
   8.350   1.5363   0.00822   0.00448  -0.1206  0.5223  0.7915
   8.400   1.5400   0.00825   0.00451  -0.1203  0.5215  0.7917
   8.450   1.5437   0.00829   0.00454  -0.1201  0.5207  0.7918
   8.500   1.5479   0.00832   0.00457  -0.1199  0.5200  0.7920
   8.550   1.5524   0.00833   0.00459  -0.1198  0.5198  0.7922
   8.600   1.5568   0.00834   0.00461  -0.1197  0.5196  0.7923
   8.650   1.5614   0.00835   0.00463  -0.1197  0.5194  0.7925
   8.700   1.5659   0.00836   0.00465  -0.1196  0.5192  0.7926
   8.750   1.5705   0.00837   0.00467  -0.1195  0.5189  0.7928
   8.800   1.5751   0.00838   0.00469  -0.1194  0.5186  0.7929
   8.850   1.5797   0.00839   0.00471  -0.1194  0.5182  0.7931
   8.900   1.5843   0.00840   0.00473  -0.1193  0.5179  0.7932
   8.950   1.5889   0.00841   0.00475  -0.1192  0.5174  0.7934
   9.000   1.5936   0.00843   0.00477  -0.1192  0.5169  0.7935
   9.050   1.5982   0.00844   0.00479  -0.1191  0.5163  0.7937
   9.100   1.6028   0.00845   0.00481  -0.1191  0.5158  0.7939
   9.150   1.6075   0.00847   0.00483  -0.1190  0.5152  0.7940
   9.200   1.6120   0.00848   0.00485  -0.1189  0.5144  0.7942
   9.250   1.6164   0.00850   0.00488  -0.1189  0.5138  0.7943
   9.300   1.6207   0.00851   0.00490  -0.1187  0.5129  0.7945
   9.350   1.6249   0.00853   0.00492  -0.1186  0.5120  0.7947
   9.400   1.6290   0.00856   0.00495  -0.1184  0.5112  0.7948
   9.450   1.6326   0.00858   0.00497  -0.1182  0.5099  0.7950
   9.500   1.6362   0.00861   0.00500  -0.1179  0.5089  0.7952
   9.550   1.6397   0.00864   0.00503  -0.1177  0.5078  0.7953
   9.600   1.6425   0.00868   0.00506  -0.1173  0.5065  0.7955
   9.650   1.6453   0.00872   0.00510  -0.1169  0.5054  0.7957
   9.700   1.6476   0.00877   0.00515  -0.1164  0.5044  0.7959
   9.750   1.6489   0.00883   0.00520  -0.1157  0.5030  0.7961
   9.800   1.6502   0.00889   0.00527  -0.1150  0.5016  0.7963
   9.850   1.6520   0.00895   0.00533  -0.1144  0.5003  0.7965
   9.900   1.6557   0.00898   0.00537  -0.1142  0.4996  0.7966
   9.950   1.6600   0.00901   0.00540  -0.1141  0.4990  0.7968
  10.000   1.6642   0.00904   0.00543  -0.1140  0.4982  0.7969
  10.050   1.6681   0.00907   0.00547  -0.1138  0.4972  0.7971
  10.100   1.6718   0.00910   0.00551  -0.1136  0.4958  0.7972
  10.150   1.6750   0.00915   0.00555  -0.1133  0.4941  0.7974
  10.200   1.6777   0.00920   0.00561  -0.1129  0.4922  0.7976
  10.250   1.6788   0.00928   0.00568  -0.1122  0.4895  0.7977
  10.300   1.6793   0.00937   0.00576  -0.1114  0.4873  0.7979
  10.350   1.6805   0.00945   0.00584  -0.1108  0.4859  0.7981
  10.400   1.6779   0.00961   0.00598  -0.1094  0.4827  0.7983
  10.450   1.6771   0.00974   0.00611  -0.1084  0.4804  0.7985
  10.500   1.6778   0.00984   0.00621  -0.1077  0.4776  0.7986
  10.550   1.6799   0.00992   0.00629  -0.1073  0.4762  0.7988
  10.600   1.6799   0.01004   0.00640  -0.1064  0.4736  0.7989
  10.650   1.6801   0.01016   0.00652  -0.1056  0.4713  0.7991
  10.700   1.6774   0.01034   0.00670  -0.1043  0.4678  0.7993
  10.750   1.6728   0.01059   0.00692  -0.1027  0.4643  0.7994
  10.800   1.6686   0.01083   0.00715  -0.1012  0.4616  0.7996
  10.850   1.6668   0.01102   0.00733  -0.1002  0.4589  0.7998
  10.900   1.6670   0.01116   0.00748  -0.0994  0.4568  0.7999
  11.000   1.6634   0.01156   0.00787  -0.0973  0.4518  0.8006
  11.050   1.6591   0.01185   0.00815  -0.0959  0.4485  0.8013
  11.100   1.6536   0.01218   0.00847  -0.0943  0.4458  0.8020
  11.150   1.6473   0.01256   0.00884  -0.0927  0.4427  0.8027
  11.200   1.6407   0.01296   0.00924  -0.0910  0.4398  0.8034
  11.250   1.6401   0.01317   0.00946  -0.0902  0.4379  0.8040
  11.300   1.6382   0.01343   0.00972  -0.0893  0.4355  0.8045
  11.350   1.6341   0.01378   0.01007  -0.0880  0.4329  0.8051
  11.400   1.6247   0.01435   0.01063  -0.0861  0.4286  0.8059
  11.450   1.6198   0.01477   0.01105  -0.0848  0.4267  0.8065
  11.500   1.6117   0.01534   0.01162  -0.0831  0.4238  0.8071
  11.550   1.6024   0.01600   0.01227  -0.0814  0.4209  0.8078
  11.600   1.5995   0.01638   0.01266  -0.0804  0.4191  0.8082
  11.650   1.5951   0.01685   0.01313  -0.0793  0.4165  0.8087
  11.700   1.5918   0.01726   0.01355  -0.0784  0.4142  0.8092
  11.750   1.5845   0.01789   0.01418  -0.0770  0.4114  0.8097
  11.800   1.5799   0.01839   0.01468  -0.0759  0.4093  0.8102
  11.850   1.5672   0.01932   0.01561  -0.0739  0.4060  0.8108
  11.900   1.5546   0.02025   0.01653  -0.0719  0.4028  0.8114
  11.950   1.5473   0.02094   0.01722  -0.0706  0.4008  0.8119
  12.000   1.5439   0.02140   0.01768  -0.0697  0.3988  0.8123
