  
       XFOIL         Version 6.94
  
 Calculated polar for: 1080                                            
  
 1 1 Reynolds number fixed          Mach number fixed         
  
 xtrf =   1.000 (top)        1.000 (bottom)  
 Mach =   0.000     Re =     2.000 e 6     Ncrit =   9.000
  
  alpha     CL        CD       CDp       CM    Top_Xtr Bot_Xtr
 ------- -------- --------- --------- -------- ------- -------
   6.000   1.3280   0.00797   0.00404  -0.1266  0.5392  0.7829
   6.050   1.3323   0.00796   0.00404  -0.1264  0.5390  0.7831
   6.100   1.3366   0.00795   0.00403  -0.1262  0.5389  0.7833
   6.150   1.3409   0.00795   0.00403  -0.1261  0.5388  0.7835
   6.200   1.3452   0.00794   0.00403  -0.1259  0.5386  0.7837
   6.250   1.3495   0.00793   0.00403  -0.1257  0.5385  0.7839
   6.300   1.3538   0.00793   0.00403  -0.1255  0.5383  0.7842
   6.350   1.3582   0.00792   0.00403  -0.1254  0.5381  0.7844
   6.400   1.3625   0.00792   0.00403  -0.1252  0.5379  0.7846
   6.450   1.3670   0.00792   0.00403  -0.1251  0.5378  0.7848
   6.500   1.3715   0.00792   0.00404  -0.1250  0.5375  0.7850
   6.550   1.3761   0.00792   0.00405  -0.1249  0.5373  0.7851
   6.600   1.3805   0.00792   0.00405  -0.1247  0.5371  0.7853
   6.650   1.3850   0.00792   0.00406  -0.1246  0.5368  0.7855
   6.700   1.3897   0.00792   0.00406  -0.1245  0.5366  0.7857
   6.750   1.3943   0.00792   0.00407  -0.1244  0.5363  0.7859
   6.800   1.3989   0.00793   0.00408  -0.1243  0.5361  0.7860
   6.850   1.4036   0.00793   0.00409  -0.1242  0.5358  0.7862
   6.900   1.4082   0.00793   0.00409  -0.1241  0.5355  0.7864
   6.950   1.4129   0.00794   0.00410  -0.1241  0.5352  0.7865
   7.000   1.4176   0.00794   0.00411  -0.1240  0.5349  0.7867
   7.050   1.4222   0.00795   0.00412  -0.1239  0.5346  0.7868
   7.100   1.4268   0.00795   0.00413  -0.1238  0.5343  0.7870
   7.150   1.4314   0.00796   0.00414  -0.1237  0.5340  0.7871
   7.200   1.4359   0.00796   0.00415  -0.1236  0.5337  0.7873
   7.250   1.4405   0.00797   0.00417  -0.1235  0.5334  0.7874
   7.300   1.4448   0.00797   0.00418  -0.1234  0.5329  0.7876
   7.350   1.4493   0.00797   0.00419  -0.1232  0.5326  0.7877
   7.400   1.4538   0.00798   0.00420  -0.1231  0.5322  0.7879
   7.450   1.4583   0.00798   0.00421  -0.1230  0.5318  0.7880
   7.500   1.4628   0.00799   0.00422  -0.1229  0.5315  0.7882
   7.550   1.4672   0.00800   0.00423  -0.1228  0.5310  0.7883
   7.600   1.4717   0.00800   0.00424  -0.1227  0.5307  0.7885
   7.650   1.4760   0.00801   0.00425  -0.1225  0.5302  0.7886
   7.700   1.4805   0.00802   0.00426  -0.1224  0.5298  0.7888
   7.750   1.4849   0.00803   0.00428  -0.1223  0.5295  0.7889
   7.800   1.4891   0.00804   0.00429  -0.1221  0.5289  0.7891
   7.850   1.4934   0.00805   0.00430  -0.1220  0.5285  0.7892
   7.900   1.4976   0.00807   0.00431  -0.1218  0.5280  0.7894
   7.950   1.5018   0.00808   0.00433  -0.1216  0.5276  0.7895
   8.000   1.5058   0.00810   0.00434  -0.1214  0.5270  0.7897
   8.050   1.5096   0.00811   0.00436  -0.1212  0.5264  0.7898
   8.100   1.5139   0.00813   0.00438  -0.1211  0.5261  0.7900
   8.150   1.5170   0.00815   0.00440  -0.1207  0.5253  0.7902
   8.200   1.5207   0.00818   0.00443  -0.1204  0.5248  0.7903
   8.250   1.5239   0.00820   0.00445  -0.1201  0.5240  0.7905
   8.300   1.5276   0.00823   0.00448  -0.1198  0.5235  0.7907
   8.350   1.5312   0.00826   0.00452  -0.1196  0.5228  0.7908
   8.400   1.5348   0.00829   0.00455  -0.1193  0.5220  0.7910
   8.450   1.5387   0.00832   0.00458  -0.1191  0.5212  0.7911
   8.500   1.5427   0.00836   0.00461  -0.1189  0.5204  0.7913
   8.550   1.5470   0.00838   0.00464  -0.1188  0.5199  0.7915
   8.600   1.5516   0.00839   0.00466  -0.1187  0.5198  0.7916
   8.650   1.5561   0.00840   0.00468  -0.1186  0.5196  0.7918
   8.700   1.5606   0.00841   0.00470  -0.1185  0.5194  0.7919
   8.750   1.5652   0.00842   0.00472  -0.1185  0.5191  0.7921
   8.800   1.5698   0.00843   0.00474  -0.1184  0.5188  0.7922
   8.850   1.5744   0.00844   0.00476  -0.1183  0.5185  0.7924
   8.900   1.5790   0.00846   0.00478  -0.1183  0.5181  0.7925
   8.950   1.5837   0.00847   0.00480  -0.1182  0.5178  0.7927
   9.000   1.5883   0.00848   0.00482  -0.1182  0.5174  0.7928
   9.050   1.5930   0.00849   0.00484  -0.1181  0.5168  0.7930
   9.100   1.5976   0.00851   0.00486  -0.1181  0.5163  0.7932
   9.150   1.6022   0.00852   0.00488  -0.1180  0.5157  0.7933
   9.200   1.6068   0.00853   0.00490  -0.1179  0.5151  0.7935
   9.250   1.6113   0.00855   0.00493  -0.1179  0.5145  0.7936
   9.300   1.6158   0.00857   0.00495  -0.1178  0.5137  0.7938
   9.350   1.6200   0.00858   0.00497  -0.1177  0.5129  0.7940
   9.400   1.6241   0.00860   0.00499  -0.1175  0.5119  0.7941
   9.450   1.6284   0.00863   0.00502  -0.1174  0.5114  0.7943
   9.500   1.6322   0.00865   0.00505  -0.1172  0.5104  0.7945
   9.550   1.6353   0.00868   0.00507  -0.1168  0.5089  0.7946
   9.600   1.6385   0.00871   0.00511  -0.1165  0.5079  0.7948
   9.650   1.6408   0.00876   0.00515  -0.1160  0.5067  0.7950
   9.700   1.6430   0.00880   0.00519  -0.1155  0.5056  0.7952
   9.750   1.6448   0.00886   0.00524  -0.1149  0.5043  0.7954
   9.800   1.6467   0.00891   0.00530  -0.1144  0.5032  0.7956
   9.850   1.6479   0.00898   0.00536  -0.1137  0.5016  0.7958
   9.900   1.6497   0.00904   0.00542  -0.1131  0.5004  0.7960
   9.950   1.6535   0.00908   0.00546  -0.1129  0.4996  0.7962
  10.000   1.6578   0.00911   0.00550  -0.1128  0.4991  0.7963
  10.050   1.6620   0.00913   0.00553  -0.1127  0.4982  0.7965
  10.100   1.6661   0.00916   0.00557  -0.1126  0.4974  0.7966
  10.150   1.6698   0.00920   0.00561  -0.1124  0.4964  0.7968
  10.200   1.6729   0.00924   0.00566  -0.1120  0.4948  0.7970
  10.250   1.6755   0.00930   0.00571  -0.1116  0.4932  0.7971
  10.300   1.6775   0.00936   0.00578  -0.1111  0.4913  0.7973
  10.350   1.6778   0.00946   0.00586  -0.1103  0.4886  0.7975
  10.400   1.6783   0.00955   0.00595  -0.1095  0.4865  0.7977
  10.450   1.6772   0.00968   0.00608  -0.1085  0.4839  0.7979
  10.500   1.6740   0.00986   0.00625  -0.1070  0.4808  0.7981
  10.550   1.6748   0.00996   0.00634  -0.1064  0.4793  0.7983
  10.600   1.6766   0.01005   0.00643  -0.1058  0.4776  0.7984
  10.650   1.6777   0.01015   0.00653  -0.1052  0.4754  0.7986
  10.700   1.6763   0.01031   0.00668  -0.1041  0.4716  0.7988
  10.750   1.6734   0.01051   0.00686  -0.1028  0.4682  0.7990
  10.800   1.6738   0.01063   0.00699  -0.1021  0.4670  0.7991
  10.850   1.6649   0.01099   0.00732  -0.0998  0.4622  0.7993
  10.900   1.6613   0.01124   0.00756  -0.0985  0.4594  0.7995
  10.950   1.6617   0.01138   0.00770  -0.0978  0.4578  0.7996
  11.000   1.6608   0.01156   0.00788  -0.0969  0.4554  0.7998
  11.050   1.6592   0.01177   0.00809  -0.0959  0.4527  0.7999
  11.150   1.6510   0.01236   0.00867  -0.0932  0.4472  0.8009
  11.200   1.6437   0.01277   0.00907  -0.0914  0.4442  0.8016
  11.250   1.6364   0.01321   0.00950  -0.0896  0.4411  0.8024
  11.300   1.6334   0.01352   0.00981  -0.0886  0.4388  0.8030
  11.350   1.6318   0.01378   0.01007  -0.0877  0.4369  0.8036
  11.400   1.6293   0.01408   0.01037  -0.0867  0.4345  0.8042
  11.450   1.6246   0.01448   0.01077  -0.0854  0.4318  0.8048
  11.500   1.6178   0.01497   0.01127  -0.0839  0.4287  0.8054
  11.550   1.6098   0.01555   0.01184  -0.0822  0.4261  0.8061
  11.600   1.5994   0.01625   0.01254  -0.0803  0.4229  0.8068
  11.650   1.5905   0.01693   0.01321  -0.0787  0.4201  0.8074
  11.700   1.5888   0.01727   0.01356  -0.0779  0.4182  0.8079
  11.750   1.5845   0.01774   0.01404  -0.0768  0.4161  0.8084
  11.800   1.5803   0.01822   0.01452  -0.0758  0.4137  0.8089
  11.850   1.5743   0.01879   0.01510  -0.0746  0.4113  0.8094
  11.900   1.5661   0.01948   0.01579  -0.0731  0.4087  0.8099
  11.950   1.5522   0.02049   0.01679  -0.0710  0.4053  0.8105
  12.000   1.5416   0.02132   0.01762  -0.0693  0.4025  0.8110
