  
       XFOIL         Version 6.94
  
 Calculated polar for: 1080                                            
  
 1 1 Reynolds number fixed          Mach number fixed         
  
 xtrf =   1.000 (top)        1.000 (bottom)  
 Mach =   0.000     Re =     2.000 e 6     Ncrit =   9.000
  
  alpha     CL        CD       CDp       CM    Top_Xtr Bot_Xtr
 ------- -------- --------- --------- -------- ------- -------
   6.000   1.3390   0.00786   0.00394  -0.1290  0.5391  0.7862
   6.050   1.3440   0.00786   0.00394  -0.1290  0.5390  0.7863
   6.100   1.3489   0.00785   0.00394  -0.1289  0.5389  0.7865
   6.150   1.3537   0.00785   0.00394  -0.1289  0.5387  0.7866
   6.200   1.3584   0.00784   0.00394  -0.1288  0.5386  0.7868
   6.250   1.3630   0.00784   0.00394  -0.1287  0.5384  0.7869
   6.300   1.3676   0.00783   0.00394  -0.1285  0.5382  0.7870
   6.350   1.3720   0.00783   0.00394  -0.1284  0.5380  0.7872
   6.400   1.3764   0.00782   0.00394  -0.1282  0.5378  0.7873
   6.450   1.3807   0.00782   0.00395  -0.1281  0.5376  0.7875
   6.500   1.3851   0.00781   0.00395  -0.1279  0.5374  0.7876
   6.550   1.3895   0.00781   0.00395  -0.1278  0.5371  0.7877
   6.600   1.3939   0.00781   0.00395  -0.1276  0.5369  0.7879
   6.650   1.3983   0.00780   0.00395  -0.1275  0.5366  0.7880
   6.700   1.4029   0.00781   0.00396  -0.1274  0.5364  0.7882
   6.750   1.4074   0.00781   0.00396  -0.1272  0.5361  0.7883
   6.800   1.4120   0.00781   0.00397  -0.1271  0.5358  0.7884
   6.850   1.4166   0.00781   0.00398  -0.1270  0.5355  0.7886
   6.900   1.4211   0.00781   0.00398  -0.1269  0.5352  0.7887
   6.950   1.4258   0.00781   0.00399  -0.1268  0.5349  0.7888
   7.000   1.4304   0.00782   0.00400  -0.1267  0.5346  0.7890
   7.050   1.4350   0.00782   0.00400  -0.1266  0.5342  0.7891
   7.100   1.4396   0.00782   0.00401  -0.1265  0.5338  0.7892
   7.150   1.4442   0.00782   0.00402  -0.1264  0.5335  0.7894
   7.200   1.4489   0.00783   0.00404  -0.1263  0.5332  0.7895
   7.250   1.4536   0.00783   0.00405  -0.1263  0.5328  0.7896
   7.300   1.4583   0.00784   0.00406  -0.1262  0.5325  0.7898
   7.350   1.4629   0.00784   0.00406  -0.1261  0.5321  0.7899
   7.400   1.4676   0.00785   0.00407  -0.1260  0.5317  0.7901
   7.450   1.4722   0.00785   0.00408  -0.1259  0.5313  0.7902
   7.500   1.4768   0.00786   0.00409  -0.1258  0.5309  0.7903
   7.550   1.4813   0.00787   0.00410  -0.1257  0.5305  0.7905
   7.600   1.4858   0.00787   0.00411  -0.1256  0.5300  0.7906
   7.650   1.4900   0.00788   0.00412  -0.1254  0.5295  0.7908
   7.700   1.4946   0.00790   0.00414  -0.1253  0.5292  0.7909
   7.750   1.4987   0.00790   0.00415  -0.1251  0.5287  0.7911
   7.800   1.5028   0.00792   0.00416  -0.1249  0.5282  0.7912
   7.850   1.5070   0.00793   0.00418  -0.1248  0.5278  0.7914
   7.900   1.5107   0.00794   0.00419  -0.1245  0.5271  0.7915
   7.950   1.5149   0.00796   0.00421  -0.1243  0.5267  0.7917
   8.000   1.5188   0.00798   0.00423  -0.1241  0.5262  0.7918
   8.050   1.5227   0.00799   0.00425  -0.1239  0.5256  0.7920
   8.100   1.5263   0.00802   0.00427  -0.1236  0.5249  0.7921
   8.150   1.5301   0.00804   0.00429  -0.1234  0.5242  0.7923
   8.200   1.5339   0.00806   0.00431  -0.1231  0.5235  0.7925
   8.250   1.5378   0.00809   0.00434  -0.1229  0.5229  0.7926
   8.300   1.5417   0.00812   0.00438  -0.1227  0.5221  0.7928
   8.350   1.5458   0.00815   0.00440  -0.1225  0.5215  0.7929
   8.400   1.5498   0.00818   0.00444  -0.1223  0.5205  0.7931
   8.450   1.5542   0.00821   0.00446  -0.1222  0.5199  0.7933
   8.500   1.5587   0.00821   0.00448  -0.1221  0.5198  0.7934
   8.550   1.5632   0.00822   0.00450  -0.1220  0.5195  0.7936
   8.600   1.5678   0.00823   0.00452  -0.1219  0.5193  0.7937
   8.650   1.5723   0.00824   0.00454  -0.1218  0.5190  0.7939
   8.700   1.5768   0.00825   0.00456  -0.1217  0.5187  0.7940
   8.750   1.5813   0.00826   0.00458  -0.1217  0.5184  0.7942
   8.800   1.5859   0.00827   0.00460  -0.1216  0.5180  0.7943
   8.850   1.5904   0.00829   0.00462  -0.1215  0.5175  0.7945
   8.900   1.5950   0.00830   0.00464  -0.1214  0.5170  0.7946
   8.950   1.5996   0.00831   0.00466  -0.1213  0.5164  0.7948
   9.000   1.6042   0.00832   0.00468  -0.1213  0.5159  0.7949
   9.050   1.6087   0.00834   0.00470  -0.1212  0.5152  0.7951
   9.100   1.6132   0.00835   0.00472  -0.1211  0.5145  0.7952
   9.150   1.6175   0.00836   0.00474  -0.1210  0.5136  0.7954
   9.200   1.6218   0.00838   0.00476  -0.1209  0.5129  0.7956
   9.250   1.6260   0.00840   0.00478  -0.1207  0.5120  0.7957
   9.300   1.6298   0.00842   0.00480  -0.1205  0.5108  0.7959
   9.350   1.6336   0.00844   0.00483  -0.1203  0.5098  0.7960
   9.400   1.6375   0.00847   0.00485  -0.1201  0.5089  0.7962
   9.450   1.6408   0.00850   0.00488  -0.1197  0.5077  0.7964
   9.500   1.6442   0.00853   0.00491  -0.1195  0.5068  0.7965
   9.550   1.6472   0.00857   0.00495  -0.1191  0.5055  0.7967
   9.600   1.6500   0.00861   0.00499  -0.1187  0.5044  0.7969
   9.650   1.6524   0.00866   0.00503  -0.1182  0.5030  0.7970
   9.700   1.6545   0.00871   0.00508  -0.1177  0.5016  0.7972
   9.750   1.6568   0.00877   0.00514  -0.1172  0.5002  0.7974
   9.800   1.6608   0.00880   0.00517  -0.1170  0.4994  0.7975
   9.850   1.6650   0.00882   0.00520  -0.1169  0.4984  0.7976
   9.900   1.6689   0.00885   0.00524  -0.1167  0.4973  0.7978
   9.950   1.6724   0.00889   0.00528  -0.1164  0.4961  0.7979
  10.000   1.6759   0.00892   0.00532  -0.1162  0.4950  0.7981
  10.050   1.6784   0.00897   0.00537  -0.1157  0.4927  0.7982
  10.100   1.6802   0.00904   0.00543  -0.1152  0.4903  0.7984
  10.150   1.6818   0.00911   0.00549  -0.1146  0.4882  0.7985
  10.200   1.6819   0.00920   0.00558  -0.1137  0.4855  0.7987
  10.250   1.6817   0.00931   0.00567  -0.1127  0.4830  0.7989
  10.300   1.6799   0.00945   0.00580  -0.1115  0.4802  0.7990
  10.350   1.6816   0.00953   0.00587  -0.1110  0.4783  0.7992
  10.400   1.6837   0.00960   0.00596  -0.1105  0.4766  0.7993
  10.450   1.6840   0.00970   0.00606  -0.1097  0.4736  0.7994
  10.500   1.6848   0.00981   0.00616  -0.1090  0.4713  0.7996
  10.550   1.6838   0.00995   0.00629  -0.1079  0.4681  0.7997
  10.600   1.6798   0.01016   0.00648  -0.1064  0.4648  0.7998
  10.650   1.6773   0.01035   0.00666  -0.1051  0.4623  0.8000
  10.700   1.6748   0.01054   0.00684  -0.1039  0.4592  0.8005
  10.750   1.6750   0.01066   0.00696  -0.1031  0.4569  0.8010
  10.800   1.6732   0.01084   0.00714  -0.1020  0.4539  0.8016
  10.850   1.6710   0.01104   0.00733  -0.1009  0.4511  0.8022
  10.900   1.6674   0.01128   0.00756  -0.0995  0.4478  0.8029
  10.950   1.6621   0.01158   0.00785  -0.0979  0.4450  0.8036
  11.000   1.6554   0.01193   0.00820  -0.0961  0.4416  0.8043
  11.050   1.6515   0.01222   0.00848  -0.0947  0.4387  0.8049
  11.100   1.6499   0.01245   0.00871  -0.0938  0.4363  0.8055
  11.150   1.6466   0.01274   0.00900  -0.0926  0.4331  0.8060
  11.200   1.6430   0.01305   0.00931  -0.0914  0.4307  0.8066
  11.250   1.6341   0.01356   0.00981  -0.0894  0.4267  0.8073
  11.300   1.6258   0.01408   0.01032  -0.0876  0.4238  0.8079
  11.350   1.6193   0.01456   0.01080  -0.0861  0.4211  0.8085
  11.400   1.6159   0.01492   0.01117  -0.0850  0.4192  0.8090
  11.450   1.6132   0.01527   0.01152  -0.0840  0.4167  0.8094
  11.500   1.6069   0.01579   0.01204  -0.0826  0.4135  0.8100
  11.550   1.6020   0.01626   0.01251  -0.0814  0.4108  0.8105
  11.600   1.5970   0.01676   0.01301  -0.0803  0.4089  0.8110
  11.650   1.5863   0.01754   0.01379  -0.0784  0.4055  0.8115
  11.700   1.5735   0.01847   0.01470  -0.0764  0.4019  0.8122
  11.750   1.5684   0.01903   0.01527  -0.0753  0.4002  0.8126
  11.800   1.5646   0.01951   0.01575  -0.0743  0.3980  0.8131
  11.850   1.5631   0.01987   0.01612  -0.0737  0.3964  0.8135
  11.900   1.5556   0.02057   0.01682  -0.0723  0.3935  0.8139
  11.950   1.5477   0.02127   0.01752  -0.0710  0.3904  0.8144
  12.000   1.5423   0.02186   0.01811  -0.0699  0.3885  0.8148
