  
       XFOIL         Version 6.94
  
 Calculated polar for: 1080                                            
  
 1 1 Reynolds number fixed          Mach number fixed         
  
 xtrf =   1.000 (top)        1.000 (bottom)  
 Mach =   0.000     Re =     2.000 e 6     Ncrit =   9.000
  
  alpha     CL        CD       CDp       CM    Top_Xtr Bot_Xtr
 ------- -------- --------- --------- -------- ------- -------
   6.000   1.3082   0.00812   0.00419  -0.1223  0.5391  0.7797
   6.050   1.3128   0.00812   0.00420  -0.1222  0.5390  0.7797
   6.100   1.3172   0.00812   0.00420  -0.1220  0.5389  0.7798
   6.150   1.3217   0.00812   0.00420  -0.1219  0.5388  0.7798
   6.200   1.3263   0.00812   0.00421  -0.1218  0.5387  0.7799
   6.250   1.3308   0.00812   0.00422  -0.1217  0.5385  0.7799
   6.300   1.3353   0.00813   0.00422  -0.1215  0.5384  0.7799
   6.350   1.3399   0.00813   0.00423  -0.1214  0.5382  0.7800
   6.400   1.3444   0.00813   0.00424  -0.1213  0.5380  0.7800
   6.450   1.3490   0.00813   0.00424  -0.1212  0.5379  0.7802
   6.500   1.3535   0.00813   0.00424  -0.1211  0.5377  0.7804
   6.550   1.3580   0.00813   0.00424  -0.1210  0.5375  0.7806
   6.600   1.3625   0.00813   0.00425  -0.1209  0.5373  0.7808
   6.650   1.3669   0.00813   0.00426  -0.1208  0.5371  0.7810
   6.700   1.3713   0.00813   0.00426  -0.1206  0.5368  0.7811
   6.750   1.3757   0.00813   0.00427  -0.1205  0.5366  0.7813
   6.800   1.3802   0.00813   0.00427  -0.1204  0.5363  0.7815
   6.850   1.3846   0.00814   0.00428  -0.1202  0.5361  0.7817
   6.900   1.3892   0.00814   0.00429  -0.1201  0.5358  0.7819
   6.950   1.3936   0.00814   0.00429  -0.1200  0.5355  0.7822
   7.000   1.3981   0.00814   0.00430  -0.1199  0.5352  0.7824
   7.050   1.4026   0.00815   0.00431  -0.1198  0.5350  0.7826
   7.100   1.4071   0.00815   0.00432  -0.1197  0.5346  0.7828
   7.150   1.4117   0.00816   0.00433  -0.1196  0.5344  0.7831
   7.200   1.4162   0.00816   0.00433  -0.1195  0.5341  0.7833
   7.250   1.4208   0.00817   0.00434  -0.1194  0.5337  0.7835
   7.300   1.4253   0.00817   0.00436  -0.1193  0.5334  0.7838
   7.350   1.4299   0.00818   0.00437  -0.1192  0.5331  0.7840
   7.400   1.4344   0.00818   0.00438  -0.1191  0.5327  0.7842
   7.450   1.4390   0.00819   0.00439  -0.1191  0.5324  0.7844
   7.500   1.4436   0.00819   0.00440  -0.1190  0.5321  0.7846
   7.550   1.4480   0.00820   0.00441  -0.1189  0.5317  0.7849
   7.600   1.4524   0.00820   0.00442  -0.1187  0.5314  0.7851
   7.650   1.4567   0.00821   0.00443  -0.1186  0.5310  0.7853
   7.700   1.4608   0.00822   0.00444  -0.1184  0.5306  0.7855
   7.750   1.4651   0.00823   0.00446  -0.1183  0.5302  0.7857
   7.800   1.4690   0.00824   0.00447  -0.1181  0.5297  0.7859
   7.850   1.4732   0.00825   0.00448  -0.1179  0.5293  0.7861
   7.900   1.4772   0.00826   0.00450  -0.1177  0.5289  0.7862
   7.950   1.4812   0.00827   0.00451  -0.1175  0.5285  0.7864
   8.000   1.4852   0.00829   0.00453  -0.1173  0.5280  0.7866
   8.050   1.4891   0.00830   0.00455  -0.1171  0.5275  0.7868
   8.100   1.4930   0.00832   0.00456  -0.1169  0.5271  0.7870
   8.150   1.4968   0.00834   0.00458  -0.1166  0.5265  0.7872
   8.200   1.5005   0.00836   0.00460  -0.1164  0.5259  0.7873
   8.250   1.5043   0.00838   0.00462  -0.1162  0.5254  0.7875
   8.300   1.5080   0.00840   0.00465  -0.1159  0.5249  0.7877
   8.350   1.5116   0.00843   0.00467  -0.1157  0.5242  0.7879
   8.400   1.5151   0.00846   0.00470  -0.1154  0.5234  0.7880
   8.450   1.5193   0.00848   0.00474  -0.1153  0.5229  0.7882
   8.500   1.5232   0.00851   0.00477  -0.1151  0.5223  0.7884
   8.550   1.5271   0.00855   0.00480  -0.1149  0.5215  0.7885
   8.600   1.5310   0.00859   0.00484  -0.1147  0.5205  0.7887
   8.650   1.5355   0.00862   0.00487  -0.1146  0.5200  0.7889
   8.700   1.5399   0.00863   0.00489  -0.1145  0.5198  0.7890
   8.750   1.5444   0.00864   0.00491  -0.1144  0.5197  0.7892
   8.800   1.5488   0.00865   0.00493  -0.1144  0.5195  0.7893
   8.850   1.5533   0.00867   0.00496  -0.1143  0.5192  0.7895
   8.900   1.5577   0.00868   0.00498  -0.1142  0.5190  0.7897
   8.950   1.5620   0.00869   0.00500  -0.1141  0.5187  0.7898
   9.000   1.5663   0.00871   0.00503  -0.1139  0.5184  0.7900
   9.050   1.5705   0.00873   0.00505  -0.1138  0.5181  0.7901
   9.100   1.5747   0.00875   0.00508  -0.1137  0.5178  0.7903
   9.150   1.5789   0.00876   0.00511  -0.1136  0.5174  0.7905
   9.200   1.5831   0.00878   0.00513  -0.1134  0.5169  0.7906
   9.250   1.5873   0.00880   0.00516  -0.1133  0.5165  0.7908
   9.300   1.5915   0.00882   0.00519  -0.1132  0.5159  0.7910
   9.350   1.5957   0.00884   0.00521  -0.1131  0.5154  0.7911
   9.400   1.6000   0.00886   0.00524  -0.1129  0.5149  0.7913
   9.450   1.6041   0.00888   0.00527  -0.1128  0.5142  0.7915
   9.500   1.6081   0.00890   0.00529  -0.1126  0.5134  0.7916
   9.550   1.6121   0.00892   0.00532  -0.1125  0.5127  0.7918
   9.600   1.6159   0.00895   0.00535  -0.1123  0.5119  0.7920
   9.650   1.6196   0.00898   0.00538  -0.1121  0.5111  0.7921
   9.700   1.6231   0.00901   0.00541  -0.1118  0.5101  0.7923
   9.750   1.6266   0.00904   0.00545  -0.1116  0.5093  0.7925
   9.800   1.6296   0.00908   0.00549  -0.1112  0.5083  0.7927
   9.850   1.6316   0.00913   0.00553  -0.1107  0.5071  0.7929
   9.900   1.6340   0.00918   0.00559  -0.1103  0.5063  0.7931
   9.950   1.6346   0.00926   0.00565  -0.1095  0.5047  0.7933
  10.000   1.6365   0.00932   0.00572  -0.1089  0.5038  0.7935
  10.050   1.6372   0.00940   0.00580  -0.1082  0.5023  0.7938
  10.100   1.6387   0.00948   0.00587  -0.1076  0.5011  0.7940
  10.150   1.6406   0.00955   0.00594  -0.1071  0.4998  0.7942
  10.200   1.6449   0.00958   0.00598  -0.1070  0.4991  0.7943
  10.250   1.6487   0.00961   0.00602  -0.1068  0.4986  0.7945
  10.300   1.6523   0.00965   0.00607  -0.1066  0.4977  0.7947
  10.350   1.6556   0.00970   0.00612  -0.1064  0.4966  0.7949
  10.400   1.6587   0.00975   0.00618  -0.1061  0.4957  0.7951
  10.450   1.6616   0.00981   0.00624  -0.1058  0.4946  0.7953
  10.500   1.6641   0.00987   0.00631  -0.1054  0.4931  0.7954
  10.550   1.6663   0.00994   0.00639  -0.1049  0.4916  0.7956
  10.600   1.6673   0.01004   0.00648  -0.1043  0.4894  0.7959
  10.650   1.6673   0.01016   0.00659  -0.1035  0.4872  0.7961
  10.700   1.6656   0.01031   0.00674  -0.1023  0.4850  0.7963
  10.750   1.6646   0.01046   0.00689  -0.1014  0.4834  0.7965
  10.800   1.6600   0.01070   0.00711  -0.0998  0.4802  0.7968
  10.850   1.6618   0.01080   0.00721  -0.0994  0.4788  0.7970
  10.900   1.6631   0.01091   0.00732  -0.0988  0.4772  0.7972
  10.950   1.6637   0.01104   0.00746  -0.0981  0.4754  0.7974
  11.000   1.6611   0.01125   0.00766  -0.0970  0.4718  0.7976
  11.050   1.6600   0.01144   0.00784  -0.0960  0.4695  0.7978
  11.100   1.6598   0.01160   0.00801  -0.0953  0.4681  0.7980
  11.150   1.6472   0.01214   0.00851  -0.0926  0.4630  0.7983
  11.200   1.6401   0.01254   0.00890  -0.0908  0.4599  0.7986
  11.250   1.6400   0.01273   0.00909  -0.0901  0.4582  0.7987
  11.300   1.6380   0.01298   0.00934  -0.0891  0.4554  0.7989
  11.350   1.6358   0.01325   0.00961  -0.0881  0.4533  0.7991
  11.400   1.6312   0.01361   0.00997  -0.0868  0.4506  0.7993
  11.450   1.6227   0.01413   0.01048  -0.0850  0.4471  0.7995
  11.500   1.6089   0.01490   0.01122  -0.0825  0.4428  0.7997
  11.550   1.6022   0.01541   0.01174  -0.0810  0.4407  0.7999
  11.650   1.5946   0.01622   0.01255  -0.0788  0.4357  0.8006
  11.700   1.5903   0.01666   0.01299  -0.0777  0.4334  0.8012
  11.750   1.5852   0.01714   0.01347  -0.0765  0.4308  0.8019
  11.800   1.5764   0.01781   0.01414  -0.0749  0.4282  0.8026
  11.850   1.5583   0.01895   0.01527  -0.0722  0.4239  0.8035
  11.900   1.5506   0.01960   0.01592  -0.0707  0.4217  0.8042
  11.950   1.5420   0.02032   0.01664  -0.0693  0.4193  0.8048
  12.000   1.5380   0.02079   0.01712  -0.0683  0.4170  0.8054
