  
       XFOIL         Version 6.94
  
 Calculated polar for: 1080                                            
  
 1 1 Reynolds number fixed          Mach number fixed         
  
 xtrf =   1.000 (top)        1.000 (bottom)  
 Mach =   0.000     Re =     2.000 e 6     Ncrit =   9.000
  
  alpha     CL        CD       CDp       CM    Top_Xtr Bot_Xtr
 ------- -------- --------- --------- -------- ------- -------
   6.000   1.3695   0.00845   0.00451  -0.1339  0.5386  0.7811
   6.050   1.3741   0.00845   0.00452  -0.1338  0.5385  0.7813
   6.100   1.3787   0.00845   0.00453  -0.1337  0.5383  0.7815
   6.150   1.3834   0.00845   0.00453  -0.1337  0.5382  0.7816
   6.200   1.3880   0.00846   0.00454  -0.1336  0.5381  0.7818
   6.250   1.3927   0.00846   0.00455  -0.1335  0.5380  0.7819
   6.300   1.3973   0.00846   0.00456  -0.1334  0.5378  0.7821
   6.350   1.4019   0.00847   0.00456  -0.1334  0.5377  0.7822
   6.400   1.4065   0.00847   0.00457  -0.1333  0.5376  0.7824
   6.450   1.4109   0.00848   0.00458  -0.1331  0.5374  0.7825
   6.500   1.4155   0.00848   0.00459  -0.1330  0.5372  0.7827
   6.550   1.4199   0.00849   0.00460  -0.1329  0.5371  0.7828
   6.600   1.4244   0.00849   0.00461  -0.1328  0.5369  0.7830
   6.650   1.4288   0.00850   0.00462  -0.1327  0.5367  0.7832
   6.700   1.4333   0.00850   0.00463  -0.1326  0.5365  0.7833
   6.750   1.4377   0.00850   0.00463  -0.1325  0.5363  0.7835
   6.800   1.4421   0.00851   0.00464  -0.1324  0.5361  0.7837
   6.850   1.4467   0.00851   0.00465  -0.1323  0.5359  0.7838
   6.900   1.4512   0.00852   0.00466  -0.1322  0.5357  0.7840
   6.950   1.4557   0.00852   0.00467  -0.1321  0.5354  0.7841
   7.000   1.4602   0.00853   0.00468  -0.1320  0.5352  0.7843
   7.050   1.4647   0.00853   0.00469  -0.1319  0.5350  0.7844
   7.100   1.4692   0.00854   0.00469  -0.1318  0.5347  0.7846
   7.150   1.4738   0.00854   0.00471  -0.1317  0.5344  0.7848
   7.200   1.4784   0.00855   0.00472  -0.1316  0.5342  0.7849
   7.250   1.4828   0.00855   0.00472  -0.1315  0.5339  0.7851
   7.300   1.4874   0.00856   0.00473  -0.1314  0.5336  0.7852
   7.350   1.4919   0.00856   0.00474  -0.1314  0.5333  0.7854
   7.400   1.4964   0.00857   0.00475  -0.1312  0.5330  0.7855
   7.450   1.5008   0.00857   0.00476  -0.1311  0.5327  0.7857
   7.500   1.5051   0.00858   0.00478  -0.1310  0.5324  0.7859
   7.550   1.5094   0.00859   0.00479  -0.1309  0.5321  0.7860
   7.600   1.5137   0.00859   0.00480  -0.1307  0.5318  0.7862
   7.650   1.5179   0.00860   0.00481  -0.1306  0.5315  0.7863
   7.700   1.5221   0.00861   0.00483  -0.1304  0.5312  0.7865
   7.750   1.5263   0.00862   0.00484  -0.1303  0.5309  0.7866
   7.800   1.5305   0.00862   0.00485  -0.1301  0.5305  0.7868
   7.850   1.5348   0.00863   0.00486  -0.1300  0.5303  0.7870
   7.900   1.5390   0.00864   0.00488  -0.1299  0.5299  0.7871
   7.950   1.5433   0.00865   0.00489  -0.1297  0.5296  0.7873
   8.000   1.5474   0.00866   0.00490  -0.1296  0.5292  0.7874
   8.050   1.5516   0.00868   0.00492  -0.1294  0.5288  0.7876
   8.100   1.5557   0.00869   0.00493  -0.1293  0.5285  0.7877
   8.150   1.5598   0.00870   0.00495  -0.1291  0.5281  0.7879
   8.200   1.5639   0.00872   0.00496  -0.1290  0.5277  0.7880
   8.250   1.5679   0.00873   0.00498  -0.1288  0.5272  0.7882
   8.300   1.5717   0.00875   0.00500  -0.1286  0.5267  0.7883
   8.350   1.5755   0.00877   0.00502  -0.1284  0.5263  0.7885
   8.400   1.5794   0.00879   0.00504  -0.1282  0.5258  0.7887
   8.450   1.5830   0.00882   0.00507  -0.1279  0.5252  0.7888
   8.500   1.5868   0.00884   0.00509  -0.1277  0.5247  0.7890
   8.550   1.5902   0.00887   0.00512  -0.1274  0.5239  0.7891
   8.600   1.5942   0.00890   0.00515  -0.1273  0.5234  0.7893
   8.650   1.5979   0.00893   0.00519  -0.1271  0.5226  0.7895
   8.700   1.6020   0.00897   0.00523  -0.1269  0.5221  0.7896
   8.750   1.6061   0.00900   0.00526  -0.1268  0.5214  0.7897
   8.800   1.6103   0.00904   0.00530  -0.1267  0.5206  0.7899
   8.850   1.6146   0.00908   0.00534  -0.1266  0.5200  0.7900
   8.900   1.6186   0.00910   0.00536  -0.1264  0.5199  0.7902
   8.950   1.6225   0.00911   0.00539  -0.1262  0.5197  0.7903
   9.000   1.6263   0.00913   0.00541  -0.1260  0.5196  0.7905
   9.050   1.6302   0.00915   0.00544  -0.1259  0.5194  0.7906
   9.100   1.6341   0.00917   0.00547  -0.1257  0.5192  0.7908
   9.150   1.6382   0.00919   0.00550  -0.1255  0.5190  0.7910
   9.200   1.6422   0.00921   0.00553  -0.1254  0.5188  0.7911
   9.250   1.6462   0.00922   0.00555  -0.1252  0.5185  0.7913
   9.300   1.6503   0.00924   0.00558  -0.1251  0.5183  0.7914
   9.350   1.6544   0.00926   0.00561  -0.1250  0.5180  0.7916
   9.400   1.6585   0.00928   0.00564  -0.1248  0.5177  0.7917
   9.450   1.6627   0.00930   0.00567  -0.1247  0.5173  0.7919
   9.500   1.6669   0.00932   0.00570  -0.1246  0.5170  0.7920
   9.550   1.6711   0.00935   0.00573  -0.1245  0.5166  0.7922
   9.600   1.6753   0.00937   0.00575  -0.1244  0.5162  0.7924
   9.650   1.6794   0.00939   0.00578  -0.1243  0.5157  0.7925
   9.700   1.6836   0.00941   0.00581  -0.1242  0.5153  0.7927
   9.750   1.6877   0.00943   0.00584  -0.1241  0.5148  0.7928
   9.800   1.6916   0.00946   0.00588  -0.1239  0.5142  0.7930
   9.850   1.6955   0.00949   0.00591  -0.1237  0.5137  0.7932
   9.900   1.6992   0.00952   0.00595  -0.1235  0.5131  0.7933
   9.950   1.7027   0.00955   0.00598  -0.1233  0.5125  0.7935
  10.000   1.7061   0.00958   0.00602  -0.1231  0.5119  0.7937
  10.050   1.7091   0.00962   0.00606  -0.1227  0.5108  0.7939
  10.100   1.7125   0.00966   0.00610  -0.1225  0.5102  0.7940
  10.150   1.7156   0.00970   0.00615  -0.1222  0.5094  0.7942
  10.200   1.7179   0.00975   0.00619  -0.1218  0.5082  0.7944
  10.250   1.7208   0.00980   0.00624  -0.1214  0.5075  0.7946
  10.300   1.7233   0.00985   0.00630  -0.1210  0.5066  0.7948
  10.350   1.7250   0.00992   0.00637  -0.1205  0.5056  0.7950
  10.400   1.7267   0.00999   0.00644  -0.1200  0.5048  0.7951
  10.450   1.7269   0.01009   0.00654  -0.1192  0.5036  0.7954
  10.500   1.7269   0.01020   0.00664  -0.1183  0.5022  0.7956
  10.550   1.7277   0.01030   0.00674  -0.1177  0.5011  0.7958
  10.600   1.7290   0.01039   0.00683  -0.1171  0.4999  0.7960
  10.650   1.7331   0.01043   0.00688  -0.1170  0.4995  0.7961
  10.700   1.7371   0.01046   0.00692  -0.1169  0.4991  0.7963
  10.750   1.7408   0.01051   0.00699  -0.1167  0.4983  0.7965
  10.800   1.7441   0.01056   0.00705  -0.1165  0.4975  0.7966
  10.850   1.7473   0.01062   0.00712  -0.1163  0.4969  0.7968
  10.900   1.7499   0.01069   0.00719  -0.1159  0.4956  0.7969
  10.950   1.7523   0.01076   0.00727  -0.1155  0.4943  0.7971
  11.000   1.7546   0.01084   0.00735  -0.1151  0.4930  0.7973
  11.050   1.7561   0.01094   0.00745  -0.1146  0.4914  0.7975
  11.100   1.7570   0.01105   0.00756  -0.1140  0.4895  0.7976
  11.150   1.7573   0.01118   0.00769  -0.1133  0.4881  0.7978
  11.200   1.7555   0.01137   0.00787  -0.1123  0.4862  0.7980
  11.250   1.7517   0.01162   0.00811  -0.1109  0.4837  0.7982
  11.300   1.7472   0.01190   0.00838  -0.1094  0.4813  0.7985
  11.350   1.7454   0.01212   0.00860  -0.1085  0.4797  0.7986
  11.400   1.7469   0.01224   0.00872  -0.1080  0.4784  0.7988
  11.450   1.7482   0.01237   0.00886  -0.1075  0.4770  0.7989
  11.500   1.7487   0.01253   0.00902  -0.1069  0.4752  0.7991
  11.550   1.7475   0.01275   0.00924  -0.1060  0.4732  0.7992
  11.600   1.7449   0.01301   0.00950  -0.1050  0.4710  0.7994
  11.650   1.7405   0.01335   0.00983  -0.1036  0.4681  0.7995
  11.700   1.7309   0.01389   0.01036  -0.1016  0.4649  0.7997
  11.750   1.7223   0.01443   0.01089  -0.0998  0.4622  0.7999
  11.850   1.7139   0.01521   0.01167  -0.0974  0.4578  0.8007
  11.900   1.7098   0.01561   0.01208  -0.0963  0.4555  0.8013
  11.950   1.7038   0.01611   0.01257  -0.0949  0.4525  0.8020
  12.000   1.6978   0.01662   0.01309  -0.0936  0.4503  0.8026
