  
       XFOIL         Version 6.94
  
 Calculated polar for: 1080                                            
  
 1 1 Reynolds number fixed          Mach number fixed         
  
 xtrf =   1.000 (top)        1.000 (bottom)  
 Mach =   0.000     Re =     2.000 e 6     Ncrit =   9.000
  
  alpha     CL        CD       CDp       CM    Top_Xtr Bot_Xtr
 ------- -------- --------- --------- -------- ------- -------
   6.000   1.3999   0.00824   0.00431  -0.1406  0.5388  0.7865
   6.050   1.4045   0.00824   0.00431  -0.1405  0.5387  0.7866
   6.100   1.4089   0.00823   0.00431  -0.1403  0.5385  0.7867
   6.150   1.4133   0.00823   0.00432  -0.1402  0.5384  0.7869
   6.200   1.4177   0.00822   0.00432  -0.1400  0.5383  0.7870
   6.250   1.4221   0.00822   0.00432  -0.1399  0.5381  0.7871
   6.300   1.4264   0.00822   0.00432  -0.1397  0.5380  0.7872
   6.350   1.4307   0.00821   0.00432  -0.1396  0.5378  0.7874
   6.400   1.4351   0.00821   0.00433  -0.1394  0.5376  0.7875
   6.450   1.4396   0.00821   0.00433  -0.1393  0.5375  0.7876
   6.500   1.4440   0.00821   0.00433  -0.1392  0.5373  0.7877
   6.550   1.4485   0.00821   0.00434  -0.1390  0.5371  0.7879
   6.600   1.4530   0.00822   0.00435  -0.1389  0.5369  0.7880
   6.650   1.4575   0.00822   0.00435  -0.1388  0.5367  0.7881
   6.700   1.4621   0.00822   0.00436  -0.1387  0.5365  0.7882
   6.750   1.4666   0.00822   0.00436  -0.1386  0.5362  0.7883
   6.800   1.4712   0.00822   0.00437  -0.1385  0.5360  0.7885
   6.850   1.4757   0.00823   0.00438  -0.1384  0.5357  0.7886
   6.900   1.4803   0.00823   0.00439  -0.1383  0.5355  0.7887
   6.950   1.4849   0.00823   0.00439  -0.1382  0.5352  0.7888
   7.000   1.4895   0.00823   0.00440  -0.1381  0.5349  0.7890
   7.050   1.4942   0.00824   0.00441  -0.1381  0.5346  0.7891
   7.100   1.4988   0.00824   0.00441  -0.1380  0.5344  0.7892
   7.150   1.5035   0.00825   0.00442  -0.1379  0.5341  0.7893
   7.200   1.5080   0.00825   0.00443  -0.1378  0.5338  0.7895
   7.250   1.5126   0.00825   0.00444  -0.1377  0.5335  0.7896
   7.300   1.5171   0.00826   0.00445  -0.1376  0.5332  0.7897
   7.350   1.5217   0.00827   0.00446  -0.1375  0.5329  0.7898
   7.400   1.5261   0.00827   0.00448  -0.1374  0.5326  0.7900
   7.450   1.5306   0.00828   0.00449  -0.1373  0.5322  0.7901
   7.500   1.5350   0.00828   0.00450  -0.1372  0.5319  0.7902
   7.550   1.5394   0.00828   0.00450  -0.1370  0.5315  0.7904
   7.600   1.5438   0.00829   0.00452  -0.1369  0.5312  0.7905
   7.650   1.5482   0.00830   0.00452  -0.1368  0.5309  0.7906
   7.700   1.5527   0.00830   0.00454  -0.1367  0.5306  0.7908
   7.750   1.5570   0.00831   0.00455  -0.1365  0.5302  0.7909
   7.800   1.5614   0.00832   0.00456  -0.1364  0.5298  0.7910
   7.850   1.5658   0.00833   0.00457  -0.1363  0.5294  0.7912
   7.900   1.5700   0.00834   0.00458  -0.1362  0.5290  0.7913
   7.950   1.5741   0.00835   0.00459  -0.1360  0.5285  0.7915
   8.000   1.5784   0.00836   0.00460  -0.1358  0.5281  0.7916
   8.050   1.5825   0.00837   0.00462  -0.1357  0.5277  0.7917
   8.100   1.5867   0.00838   0.00463  -0.1355  0.5272  0.7919
   8.150   1.5908   0.00840   0.00465  -0.1353  0.5268  0.7920
   8.200   1.5947   0.00842   0.00467  -0.1351  0.5263  0.7922
   8.250   1.5986   0.00844   0.00469  -0.1349  0.5258  0.7923
   8.300   1.6021   0.00846   0.00471  -0.1346  0.5252  0.7925
   8.350   1.6055   0.00848   0.00474  -0.1343  0.5246  0.7926
   8.400   1.6091   0.00851   0.00476  -0.1341  0.5240  0.7928
   8.450   1.6127   0.00854   0.00479  -0.1338  0.5234  0.7929
   8.500   1.6163   0.00857   0.00483  -0.1335  0.5227  0.7931
   8.550   1.6202   0.00860   0.00486  -0.1333  0.5220  0.7932
   8.600   1.6241   0.00863   0.00489  -0.1332  0.5213  0.7934
   8.650   1.6283   0.00867   0.00493  -0.1330  0.5205  0.7935
   8.700   1.6327   0.00870   0.00496  -0.1329  0.5200  0.7937
   8.750   1.6370   0.00871   0.00498  -0.1328  0.5198  0.7938
   8.800   1.6414   0.00872   0.00500  -0.1327  0.5197  0.7940
   8.850   1.6458   0.00873   0.00502  -0.1326  0.5195  0.7941
   8.900   1.6502   0.00874   0.00504  -0.1325  0.5193  0.7943
   8.950   1.6547   0.00875   0.00506  -0.1325  0.5191  0.7944
   9.000   1.6592   0.00877   0.00508  -0.1324  0.5189  0.7946
   9.050   1.6637   0.00878   0.00510  -0.1323  0.5186  0.7947
   9.100   1.6682   0.00879   0.00513  -0.1322  0.5183  0.7948
   9.150   1.6727   0.00881   0.00515  -0.1322  0.5180  0.7950
   9.200   1.6773   0.00882   0.00517  -0.1321  0.5178  0.7951
   9.250   1.6818   0.00884   0.00519  -0.1320  0.5173  0.7953
   9.300   1.6864   0.00885   0.00522  -0.1320  0.5169  0.7954
   9.350   1.6909   0.00886   0.00524  -0.1319  0.5165  0.7956
   9.400   1.6954   0.00888   0.00526  -0.1319  0.5159  0.7957
   9.450   1.7000   0.00889   0.00529  -0.1318  0.5156  0.7959
   9.500   1.7045   0.00891   0.00531  -0.1317  0.5149  0.7960
   9.550   1.7090   0.00892   0.00533  -0.1317  0.5143  0.7961
   9.600   1.7134   0.00894   0.00535  -0.1316  0.5137  0.7963
   9.650   1.7176   0.00896   0.00538  -0.1315  0.5129  0.7964
   9.700   1.7218   0.00898   0.00540  -0.1313  0.5122  0.7966
   9.750   1.7258   0.00900   0.00543  -0.1312  0.5113  0.7967
   9.800   1.7295   0.00903   0.00545  -0.1310  0.5105  0.7969
   9.850   1.7330   0.00906   0.00548  -0.1307  0.5097  0.7970
   9.900   1.7361   0.00909   0.00552  -0.1304  0.5088  0.7972
   9.950   1.7389   0.00913   0.00556  -0.1300  0.5079  0.7973
  10.000   1.7410   0.00917   0.00560  -0.1295  0.5067  0.7975
  10.050   1.7441   0.00921   0.00564  -0.1292  0.5060  0.7976
  10.100   1.7451   0.00928   0.00570  -0.1284  0.5044  0.7978
  10.150   1.7470   0.00934   0.00576  -0.1279  0.5033  0.7980
  10.200   1.7488   0.00940   0.00582  -0.1273  0.5021  0.7981
  10.250   1.7504   0.00947   0.00589  -0.1267  0.5008  0.7983
  10.300   1.7531   0.00952   0.00594  -0.1264  0.4997  0.7984
  10.350   1.7574   0.00955   0.00598  -0.1263  0.4990  0.7985
  10.400   1.7614   0.00958   0.00602  -0.1262  0.4985  0.7986
  10.450   1.7652   0.00962   0.00606  -0.1260  0.4977  0.7988
  10.500   1.7688   0.00966   0.00612  -0.1258  0.4969  0.7989
  10.550   1.7721   0.00970   0.00617  -0.1255  0.4960  0.7990
  10.600   1.7752   0.00975   0.00623  -0.1252  0.4948  0.7991
  10.650   1.7777   0.00981   0.00629  -0.1248  0.4931  0.7992
  10.700   1.7801   0.00987   0.00635  -0.1244  0.4917  0.7993
  10.750   1.7816   0.00995   0.00643  -0.1238  0.4897  0.7995
  10.800   1.7831   0.01004   0.00651  -0.1232  0.4880  0.7996
  10.850   1.7822   0.01017   0.00663  -0.1222  0.4856  0.7997
  10.900   1.7791   0.01035   0.00680  -0.1209  0.4829  0.7999
  10.950   1.7769   0.01052   0.00696  -0.1197  0.4807  0.8000
  11.000   1.7774   0.01064   0.00708  -0.1190  0.4784  0.8004
  11.050   1.7790   0.01073   0.00717  -0.1184  0.4765  0.8008
  11.100   1.7802   0.01084   0.00728  -0.1178  0.4749  0.8013
  11.150   1.7781   0.01102   0.00746  -0.1167  0.4718  0.8019
  11.200   1.7763   0.01120   0.00764  -0.1156  0.4692  0.8025
  11.250   1.7720   0.01147   0.00789  -0.1142  0.4660  0.8031
  11.300   1.7652   0.01181   0.00822  -0.1123  0.4630  0.8039
  11.350   1.7593   0.01214   0.00855  -0.1107  0.4598  0.8045
  11.400   1.7579   0.01235   0.00876  -0.1097  0.4576  0.8051
  11.450   1.7561   0.01259   0.00900  -0.1088  0.4554  0.8056
  11.500   1.7553   0.01279   0.00920  -0.1079  0.4536  0.8061
  11.550   1.7475   0.01324   0.00964  -0.1061  0.4497  0.8067
  11.600   1.7417   0.01364   0.01004  -0.1046  0.4471  0.8073
  11.650   1.7317   0.01422   0.01062  -0.1025  0.4440  0.8080
  11.700   1.7224   0.01481   0.01121  -0.1006  0.4410  0.8086
  11.750   1.7183   0.01522   0.01162  -0.0995  0.4389  0.8090
  11.800   1.7160   0.01556   0.01196  -0.0986  0.4368  0.8095
  11.850   1.7101   0.01607   0.01247  -0.0973  0.4341  0.8100
  11.900   1.7067   0.01648   0.01288  -0.0963  0.4322  0.8104
  11.950   1.6978   0.01717   0.01358  -0.0946  0.4293  0.8110
  12.000   1.6803   0.01832   0.01472  -0.0920  0.4252  0.8116
