  
       XFOIL         Version 6.94
  
 Calculated polar for: 1080                                            
  
 1 1 Reynolds number fixed          Mach number fixed         
  
 xtrf =   1.000 (top)        1.000 (bottom)  
 Mach =   0.000     Re =     2.000 e 6     Ncrit =   9.000
  
  alpha     CL        CD       CDp       CM    Top_Xtr Bot_Xtr
 ------- -------- --------- --------- -------- ------- -------
   6.000   1.3642   0.00810   0.00417  -0.1336  0.5390  0.7852
   6.050   1.3687   0.00810   0.00417  -0.1335  0.5389  0.7853
   6.100   1.3730   0.00809   0.00417  -0.1333  0.5388  0.7854
   6.150   1.3773   0.00808   0.00417  -0.1332  0.5386  0.7856
   6.200   1.3816   0.00808   0.00417  -0.1330  0.5385  0.7857
   6.250   1.3858   0.00807   0.00417  -0.1328  0.5383  0.7859
   6.300   1.3902   0.00807   0.00417  -0.1327  0.5382  0.7860
   6.350   1.3946   0.00807   0.00417  -0.1325  0.5380  0.7861
   6.400   1.3990   0.00806   0.00418  -0.1324  0.5378  0.7863
   6.450   1.4034   0.00806   0.00418  -0.1322  0.5376  0.7864
   6.500   1.4078   0.00806   0.00418  -0.1321  0.5374  0.7866
   6.550   1.4124   0.00806   0.00419  -0.1320  0.5372  0.7867
   6.600   1.4168   0.00806   0.00419  -0.1318  0.5370  0.7868
   6.650   1.4213   0.00806   0.00420  -0.1317  0.5368  0.7870
   6.700   1.4258   0.00806   0.00420  -0.1316  0.5365  0.7871
   6.750   1.4304   0.00807   0.00421  -0.1315  0.5363  0.7872
   6.800   1.4351   0.00807   0.00422  -0.1314  0.5360  0.7874
   6.850   1.4397   0.00807   0.00423  -0.1313  0.5358  0.7875
   6.900   1.4443   0.00808   0.00424  -0.1312  0.5355  0.7876
   6.950   1.4489   0.00808   0.00424  -0.1311  0.5352  0.7878
   7.000   1.4536   0.00808   0.00425  -0.1310  0.5349  0.7879
   7.050   1.4582   0.00808   0.00426  -0.1310  0.5346  0.7880
   7.100   1.4628   0.00809   0.00427  -0.1309  0.5343  0.7882
   7.150   1.4675   0.00809   0.00428  -0.1308  0.5340  0.7883
   7.200   1.4720   0.00810   0.00428  -0.1307  0.5337  0.7884
   7.250   1.4765   0.00810   0.00429  -0.1306  0.5334  0.7886
   7.300   1.4811   0.00811   0.00431  -0.1305  0.5331  0.7887
   7.350   1.4856   0.00812   0.00433  -0.1304  0.5328  0.7888
   7.400   1.4901   0.00812   0.00434  -0.1303  0.5325  0.7890
   7.450   1.4945   0.00813   0.00435  -0.1302  0.5321  0.7891
   7.500   1.4990   0.00813   0.00435  -0.1300  0.5317  0.7892
   7.550   1.5035   0.00814   0.00437  -0.1299  0.5314  0.7894
   7.600   1.5079   0.00815   0.00438  -0.1298  0.5311  0.7895
   7.650   1.5123   0.00815   0.00439  -0.1297  0.5307  0.7897
   7.700   1.5167   0.00816   0.00440  -0.1295  0.5303  0.7898
   7.750   1.5211   0.00817   0.00441  -0.1294  0.5299  0.7899
   7.800   1.5254   0.00818   0.00442  -0.1293  0.5295  0.7901
   7.850   1.5296   0.00818   0.00443  -0.1291  0.5290  0.7902
   7.900   1.5340   0.00820   0.00444  -0.1290  0.5286  0.7904
   7.950   1.5380   0.00821   0.00445  -0.1288  0.5281  0.7905
   8.000   1.5422   0.00822   0.00447  -0.1286  0.5276  0.7907
   8.050   1.5463   0.00824   0.00448  -0.1285  0.5271  0.7908
   8.100   1.5503   0.00825   0.00450  -0.1283  0.5266  0.7910
   8.150   1.5542   0.00827   0.00452  -0.1281  0.5261  0.7911
   8.200   1.5578   0.00829   0.00454  -0.1278  0.5255  0.7913
   8.250   1.5616   0.00831   0.00456  -0.1275  0.5251  0.7914
   8.300   1.5652   0.00834   0.00459  -0.1273  0.5246  0.7916
   8.350   1.5686   0.00836   0.00462  -0.1270  0.5239  0.7917
   8.400   1.5720   0.00839   0.00465  -0.1267  0.5231  0.7919
   8.450   1.5757   0.00842   0.00468  -0.1264  0.5224  0.7921
   8.500   1.5796   0.00845   0.00471  -0.1262  0.5218  0.7922
   8.550   1.5835   0.00849   0.00475  -0.1260  0.5209  0.7924
   8.600   1.5877   0.00852   0.00478  -0.1259  0.5202  0.7925
   8.650   1.5921   0.00854   0.00480  -0.1258  0.5199  0.7927
   8.700   1.5965   0.00855   0.00482  -0.1257  0.5197  0.7928
   8.750   1.6010   0.00856   0.00484  -0.1256  0.5195  0.7930
   8.800   1.6055   0.00857   0.00486  -0.1255  0.5193  0.7931
   8.850   1.6100   0.00858   0.00488  -0.1254  0.5191  0.7933
   8.900   1.6146   0.00860   0.00491  -0.1254  0.5189  0.7934
   8.950   1.6191   0.00861   0.00493  -0.1253  0.5186  0.7936
   9.000   1.6237   0.00862   0.00495  -0.1252  0.5183  0.7937
   9.050   1.6283   0.00863   0.00497  -0.1252  0.5179  0.7939
   9.100   1.6329   0.00864   0.00499  -0.1251  0.5175  0.7940
   9.150   1.6375   0.00866   0.00501  -0.1251  0.5172  0.7942
   9.200   1.6421   0.00867   0.00504  -0.1250  0.5168  0.7943
   9.250   1.6466   0.00869   0.00506  -0.1250  0.5163  0.7945
   9.300   1.6512   0.00870   0.00508  -0.1249  0.5156  0.7946
   9.350   1.6558   0.00872   0.00510  -0.1248  0.5150  0.7948
   9.400   1.6603   0.00873   0.00512  -0.1248  0.5144  0.7949
   9.450   1.6647   0.00875   0.00514  -0.1247  0.5136  0.7951
   9.500   1.6689   0.00877   0.00517  -0.1246  0.5129  0.7953
   9.550   1.6732   0.00879   0.00519  -0.1244  0.5122  0.7954
   9.600   1.6771   0.00881   0.00522  -0.1243  0.5112  0.7956
   9.650   1.6811   0.00883   0.00524  -0.1241  0.5105  0.7957
   9.700   1.6845   0.00886   0.00527  -0.1238  0.5095  0.7959
   9.750   1.6875   0.00890   0.00531  -0.1235  0.5084  0.7961
   9.800   1.6904   0.00893   0.00535  -0.1231  0.5075  0.7962
   9.850   1.6925   0.00898   0.00539  -0.1226  0.5063  0.7964
   9.900   1.6948   0.00903   0.00543  -0.1221  0.5053  0.7966
   9.950   1.6961   0.00909   0.00549  -0.1214  0.5038  0.7968
  10.000   1.6978   0.00915   0.00555  -0.1208  0.5026  0.7970
  10.050   1.6988   0.00923   0.00562  -0.1201  0.5009  0.7971
  10.100   1.7013   0.00928   0.00568  -0.1197  0.4998  0.7973
  10.150   1.7057   0.00931   0.00571  -0.1196  0.4993  0.7975
  10.200   1.7100   0.00933   0.00575  -0.1195  0.4988  0.7976
  10.250   1.7140   0.00936   0.00579  -0.1194  0.4980  0.7977
  10.300   1.7178   0.00940   0.00583  -0.1192  0.4972  0.7979
  10.350   1.7212   0.00944   0.00587  -0.1190  0.4960  0.7980
  10.400   1.7245   0.00948   0.00592  -0.1187  0.4951  0.7981
  10.450   1.7270   0.00954   0.00599  -0.1183  0.4934  0.7983
  10.500   1.7290   0.00961   0.00606  -0.1178  0.4916  0.7984
  10.550   1.7303   0.00969   0.00614  -0.1171  0.4894  0.7986
  10.600   1.7307   0.00979   0.00623  -0.1163  0.4871  0.7988
  10.650   1.7300   0.00992   0.00635  -0.1154  0.4847  0.7989
  10.700   1.7273   0.01009   0.00650  -0.1140  0.4821  0.7991
  10.750   1.7252   0.01025   0.00666  -0.1129  0.4796  0.7993
  10.800   1.7274   0.01033   0.00674  -0.1124  0.4781  0.7994
  10.850   1.7282   0.01044   0.00685  -0.1117  0.4756  0.7995
  10.900   1.7294   0.01055   0.00695  -0.1112  0.4737  0.7996
  10.950   1.7262   0.01075   0.00715  -0.1098  0.4700  0.7998
  11.000   1.7229   0.01097   0.00736  -0.1085  0.4671  0.7999
  11.050   1.7191   0.01122   0.00759  -0.1071  0.4642  0.8003
  11.100   1.7133   0.01152   0.00789  -0.1054  0.4613  0.8010
  11.150   1.7096   0.01178   0.00814  -0.1040  0.4581  0.8016
  11.200   1.7100   0.01193   0.00829  -0.1034  0.4564  0.8021
  11.250   1.7089   0.01213   0.00849  -0.1025  0.4544  0.8027
  11.300   1.7041   0.01245   0.00881  -0.1010  0.4511  0.8033
  11.350   1.6999   0.01277   0.00912  -0.0997  0.4483  0.8040
  11.400   1.6931   0.01318   0.00953  -0.0980  0.4457  0.8047
  11.450   1.6838   0.01371   0.01005  -0.0960  0.4423  0.8054
  11.500   1.6774   0.01416   0.01050  -0.0945  0.4397  0.8061
  11.550   1.6762   0.01443   0.01077  -0.0937  0.4378  0.8066
  11.600   1.6731   0.01478   0.01112  -0.0926  0.4357  0.8071
  11.650   1.6691   0.01517   0.01152  -0.0915  0.4332  0.8076
  11.700   1.6625   0.01569   0.01204  -0.0901  0.4304  0.8082
  11.750   1.6550   0.01627   0.01262  -0.0885  0.4276  0.8087
  11.800   1.6435   0.01708   0.01342  -0.0865  0.4247  0.8093
  11.850   1.6304   0.01799   0.01434  -0.0844  0.4214  0.8100
  11.900   1.6252   0.01853   0.01487  -0.0833  0.4192  0.8104
  11.950   1.6215   0.01900   0.01536  -0.0823  0.4173  0.8109
  12.000   1.6174   0.01950   0.01586  -0.0813  0.4153  0.8113
