  
       XFOIL         Version 6.94
  
 Calculated polar for: 1080                                            
  
 1 1 Reynolds number fixed          Mach number fixed         
  
 xtrf =   1.000 (top)        1.000 (bottom)  
 Mach =   0.000     Re =     2.000 e 6     Ncrit =   9.000
  
  alpha     CL        CD       CDp       CM    Top_Xtr Bot_Xtr
 ------- -------- --------- --------- -------- ------- -------
   6.000   1.3542   0.00858   0.00465  -0.1306  0.5385  0.7795
   6.050   1.3586   0.00858   0.00465  -0.1305  0.5383  0.7795
   6.100   1.3631   0.00859   0.00467  -0.1304  0.5382  0.7796
   6.150   1.3676   0.00860   0.00468  -0.1303  0.5381  0.7796
   6.200   1.3719   0.00860   0.00469  -0.1302  0.5380  0.7797
   6.250   1.3765   0.00861   0.00471  -0.1301  0.5378  0.7797
   6.300   1.3810   0.00862   0.00472  -0.1300  0.5377  0.7797
   6.350   1.3855   0.00863   0.00473  -0.1299  0.5376  0.7798
   6.400   1.3900   0.00863   0.00474  -0.1298  0.5374  0.7798
   6.450   1.3946   0.00864   0.00475  -0.1297  0.5373  0.7799
   6.500   1.3992   0.00865   0.00476  -0.1296  0.5371  0.7799
   6.550   1.4037   0.00866   0.00478  -0.1295  0.5370  0.7799
   6.600   1.4083   0.00867   0.00479  -0.1294  0.5368  0.7800
   6.650   1.4128   0.00868   0.00480  -0.1293  0.5366  0.7801
   6.700   1.4175   0.00868   0.00481  -0.1293  0.5365  0.7803
   6.750   1.4220   0.00868   0.00481  -0.1292  0.5363  0.7805
   6.800   1.4266   0.00869   0.00482  -0.1291  0.5361  0.7806
   6.850   1.4311   0.00869   0.00483  -0.1290  0.5359  0.7808
   6.900   1.4356   0.00869   0.00483  -0.1289  0.5357  0.7810
   6.950   1.4402   0.00870   0.00485  -0.1289  0.5355  0.7812
   7.000   1.4446   0.00871   0.00485  -0.1287  0.5352  0.7813
   7.050   1.4489   0.00871   0.00486  -0.1286  0.5350  0.7815
   7.100   1.4532   0.00871   0.00487  -0.1285  0.5347  0.7817
   7.150   1.4576   0.00872   0.00488  -0.1284  0.5345  0.7819
   7.200   1.4618   0.00873   0.00489  -0.1282  0.5342  0.7821
   7.250   1.4661   0.00873   0.00490  -0.1281  0.5340  0.7823
   7.300   1.4704   0.00874   0.00491  -0.1280  0.5337  0.7824
   7.350   1.4748   0.00875   0.00492  -0.1279  0.5335  0.7826
   7.400   1.4791   0.00875   0.00493  -0.1277  0.5332  0.7828
   7.450   1.4835   0.00876   0.00494  -0.1276  0.5329  0.7830
   7.500   1.4879   0.00876   0.00495  -0.1275  0.5326  0.7832
   7.550   1.4922   0.00877   0.00496  -0.1274  0.5323  0.7834
   7.600   1.4966   0.00877   0.00498  -0.1273  0.5320  0.7835
   7.650   1.5010   0.00878   0.00498  -0.1272  0.5317  0.7837
   7.700   1.5055   0.00879   0.00500  -0.1271  0.5315  0.7839
   7.750   1.5099   0.00879   0.00501  -0.1270  0.5312  0.7841
   7.800   1.5142   0.00880   0.00502  -0.1269  0.5308  0.7843
   7.850   1.5186   0.00881   0.00503  -0.1268  0.5305  0.7844
   7.900   1.5229   0.00882   0.00504  -0.1267  0.5302  0.7846
   7.950   1.5272   0.00882   0.00505  -0.1266  0.5298  0.7848
   8.000   1.5315   0.00883   0.00506  -0.1265  0.5295  0.7850
   8.050   1.5358   0.00885   0.00508  -0.1263  0.5292  0.7852
   8.100   1.5400   0.00886   0.00509  -0.1262  0.5288  0.7853
   8.150   1.5442   0.00887   0.00511  -0.1261  0.5284  0.7855
   8.200   1.5482   0.00889   0.00512  -0.1259  0.5280  0.7857
   8.250   1.5524   0.00890   0.00514  -0.1258  0.5277  0.7859
   8.300   1.5564   0.00892   0.00516  -0.1256  0.5273  0.7860
   8.350   1.5601   0.00894   0.00518  -0.1254  0.5268  0.7862
   8.400   1.5638   0.00896   0.00521  -0.1252  0.5264  0.7864
   8.450   1.5673   0.00899   0.00523  -0.1249  0.5259  0.7866
   8.500   1.5704   0.00902   0.00526  -0.1246  0.5254  0.7868
   8.550   1.5736   0.00905   0.00529  -0.1243  0.5249  0.7869
   8.600   1.5772   0.00908   0.00533  -0.1240  0.5245  0.7871
   8.650   1.5799   0.00912   0.00536  -0.1236  0.5236  0.7873
   8.700   1.5834   0.00915   0.00541  -0.1234  0.5230  0.7875
   8.750   1.5870   0.00919   0.00544  -0.1231  0.5224  0.7876
   8.800   1.5908   0.00923   0.00548  -0.1230  0.5216  0.7878
   8.850   1.5950   0.00927   0.00552  -0.1228  0.5210  0.7880
   8.900   1.5993   0.00931   0.00556  -0.1228  0.5202  0.7881
   8.950   1.6034   0.00933   0.00559  -0.1226  0.5199  0.7883
   9.000   1.6072   0.00935   0.00562  -0.1225  0.5198  0.7885
   9.050   1.6112   0.00937   0.00564  -0.1223  0.5196  0.7886
   9.100   1.6152   0.00939   0.00567  -0.1222  0.5195  0.7888
   9.150   1.6192   0.00940   0.00570  -0.1220  0.5193  0.7889
   9.200   1.6233   0.00943   0.00573  -0.1219  0.5191  0.7891
   9.250   1.6272   0.00945   0.00576  -0.1217  0.5189  0.7893
   9.300   1.6311   0.00947   0.00579  -0.1216  0.5187  0.7894
   9.350   1.6348   0.00950   0.00583  -0.1214  0.5185  0.7896
   9.400   1.6386   0.00952   0.00586  -0.1212  0.5182  0.7898
   9.450   1.6423   0.00955   0.00590  -0.1210  0.5179  0.7899
   9.500   1.6460   0.00958   0.00594  -0.1208  0.5176  0.7901
   9.550   1.6498   0.00960   0.00597  -0.1206  0.5173  0.7902
   9.600   1.6536   0.00963   0.00601  -0.1204  0.5169  0.7904
   9.650   1.6575   0.00966   0.00604  -0.1203  0.5166  0.7906
   9.700   1.6614   0.00969   0.00608  -0.1201  0.5161  0.7907
   9.750   1.6654   0.00971   0.00611  -0.1200  0.5157  0.7909
   9.800   1.6693   0.00974   0.00615  -0.1199  0.5152  0.7911
   9.850   1.6733   0.00977   0.00618  -0.1197  0.5148  0.7912
   9.900   1.6772   0.00980   0.00622  -0.1196  0.5142  0.7914
   9.950   1.6812   0.00983   0.00625  -0.1195  0.5137  0.7915
  10.000   1.6850   0.00986   0.00629  -0.1193  0.5131  0.7917
  10.050   1.6886   0.00990   0.00633  -0.1191  0.5126  0.7919
  10.100   1.6918   0.00994   0.00638  -0.1188  0.5119  0.7921
  10.150   1.6946   0.00998   0.00643  -0.1185  0.5111  0.7923
  10.200   1.6977   0.01003   0.00648  -0.1182  0.5105  0.7924
  10.250   1.7005   0.01008   0.00653  -0.1179  0.5098  0.7926
  10.300   1.7032   0.01013   0.00658  -0.1175  0.5090  0.7928
  10.350   1.7058   0.01019   0.00664  -0.1172  0.5083  0.7930
  10.400   1.7082   0.01025   0.00670  -0.1168  0.5074  0.7932
  10.450   1.7100   0.01032   0.00677  -0.1163  0.5064  0.7934
  10.500   1.7113   0.01040   0.00686  -0.1157  0.5054  0.7936
  10.550   1.7118   0.01051   0.00696  -0.1150  0.5044  0.7938
  10.600   1.7109   0.01064   0.00709  -0.1140  0.5030  0.7940
  10.650   1.7114   0.01076   0.00721  -0.1133  0.5020  0.7942
  10.700   1.7120   0.01087   0.00732  -0.1127  0.5009  0.7944
  10.750   1.7135   0.01097   0.00742  -0.1121  0.4999  0.7946
  10.800   1.7173   0.01102   0.00748  -0.1120  0.4994  0.7948
  10.850   1.7208   0.01107   0.00756  -0.1118  0.4989  0.7950
  10.900   1.7242   0.01113   0.00762  -0.1117  0.4983  0.7952
  10.950   1.7274   0.01119   0.00770  -0.1114  0.4977  0.7953
  11.000   1.7304   0.01126   0.00777  -0.1112  0.4969  0.7955
  11.050   1.7334   0.01133   0.00785  -0.1109  0.4962  0.7957
  11.100   1.7359   0.01141   0.00793  -0.1106  0.4950  0.7959
  11.150   1.7384   0.01149   0.00802  -0.1103  0.4940  0.7961
  11.200   1.7400   0.01160   0.00813  -0.1098  0.4923  0.7962
  11.250   1.7405   0.01174   0.00827  -0.1091  0.4906  0.7965
  11.300   1.7387   0.01194   0.00847  -0.1081  0.4885  0.7967
  11.350   1.7384   0.01211   0.00863  -0.1074  0.4871  0.7969
  11.400   1.7318   0.01247   0.00897  -0.1057  0.4839  0.7971
  11.450   1.7289   0.01273   0.00923  -0.1045  0.4824  0.7974
  11.500   1.7233   0.01309   0.00959  -0.1030  0.4798  0.7976
  11.550   1.7247   0.01323   0.00974  -0.1026  0.4786  0.7978
  11.600   1.7259   0.01339   0.00990  -0.1021  0.4777  0.7980
  11.650   1.7252   0.01361   0.01012  -0.1014  0.4759  0.7981
  11.700   1.7233   0.01387   0.01038  -0.1005  0.4735  0.7983
  11.750   1.7194   0.01422   0.01073  -0.0993  0.4708  0.7985
  11.800   1.7144   0.01463   0.01113  -0.0980  0.4686  0.7987
  11.850   1.7010   0.01539   0.01187  -0.0955  0.4646  0.7990
  11.900   1.6927   0.01597   0.01245  -0.0939  0.4622  0.7992
  11.950   1.6822   0.01669   0.01316  -0.0920  0.4593  0.7994
  12.000   1.6793   0.01706   0.01354  -0.0910  0.4571  0.7995
