  
       XFOIL         Version 6.94
  
 Calculated polar for: 1080                                            
  
 1 1 Reynolds number fixed          Mach number fixed         
  
 xtrf =   1.000 (top)        1.000 (bottom)  
 Mach =   0.000     Re =     2.000 e 6     Ncrit =   9.000
  
  alpha     CL        CD       CDp       CM    Top_Xtr Bot_Xtr
 ------- -------- --------- --------- -------- ------- -------
   6.000   1.3685   0.00807   0.00415  -0.1346  0.5390  0.7860
   6.050   1.3733   0.00807   0.00415  -0.1345  0.5389  0.7861
   6.100   1.3777   0.00806   0.00415  -0.1344  0.5387  0.7862
   6.150   1.3822   0.00806   0.00415  -0.1342  0.5386  0.7864
   6.200   1.3865   0.00805   0.00415  -0.1341  0.5385  0.7865
   6.250   1.3908   0.00805   0.00415  -0.1339  0.5383  0.7866
   6.300   1.3951   0.00804   0.00414  -0.1337  0.5382  0.7868
   6.350   1.3994   0.00803   0.00414  -0.1336  0.5380  0.7869
   6.400   1.4037   0.00803   0.00414  -0.1334  0.5378  0.7870
   6.450   1.4081   0.00803   0.00415  -0.1332  0.5376  0.7872
   6.500   1.4125   0.00802   0.00415  -0.1331  0.5374  0.7873
   6.550   1.4169   0.00802   0.00415  -0.1329  0.5372  0.7874
   6.600   1.4214   0.00802   0.00416  -0.1328  0.5370  0.7876
   6.650   1.4258   0.00802   0.00416  -0.1327  0.5367  0.7877
   6.700   1.4304   0.00802   0.00417  -0.1326  0.5365  0.7878
   6.750   1.4349   0.00802   0.00417  -0.1324  0.5362  0.7880
   6.800   1.4395   0.00803   0.00418  -0.1323  0.5360  0.7881
   6.850   1.4441   0.00803   0.00419  -0.1323  0.5357  0.7882
   6.900   1.4488   0.00803   0.00420  -0.1322  0.5355  0.7883
   6.950   1.4533   0.00803   0.00420  -0.1321  0.5351  0.7885
   7.000   1.4579   0.00804   0.00421  -0.1320  0.5348  0.7886
   7.050   1.4626   0.00804   0.00422  -0.1319  0.5345  0.7887
   7.100   1.4673   0.00805   0.00423  -0.1318  0.5343  0.7889
   7.150   1.4720   0.00805   0.00424  -0.1318  0.5340  0.7890
   7.200   1.4766   0.00806   0.00425  -0.1317  0.5337  0.7891
   7.250   1.4813   0.00806   0.00425  -0.1316  0.5333  0.7893
   7.300   1.4858   0.00807   0.00427  -0.1315  0.5330  0.7894
   7.350   1.4904   0.00807   0.00428  -0.1314  0.5327  0.7895
   7.400   1.4949   0.00808   0.00429  -0.1313  0.5323  0.7897
   7.450   1.4994   0.00808   0.00430  -0.1312  0.5319  0.7898
   7.500   1.5039   0.00809   0.00431  -0.1311  0.5316  0.7899
   7.550   1.5082   0.00809   0.00432  -0.1309  0.5312  0.7901
   7.600   1.5126   0.00809   0.00433  -0.1308  0.5307  0.7902
   7.650   1.5171   0.00810   0.00434  -0.1307  0.5305  0.7903
   7.700   1.5213   0.00811   0.00435  -0.1305  0.5300  0.7905
   7.750   1.5256   0.00812   0.00436  -0.1304  0.5296  0.7906
   7.800   1.5299   0.00813   0.00437  -0.1302  0.5292  0.7908
   7.850   1.5342   0.00814   0.00438  -0.1301  0.5287  0.7909
   7.900   1.5384   0.00815   0.00440  -0.1299  0.5283  0.7911
   7.950   1.5426   0.00816   0.00441  -0.1298  0.5279  0.7912
   8.000   1.5467   0.00818   0.00443  -0.1296  0.5273  0.7913
   8.050   1.5509   0.00819   0.00444  -0.1294  0.5269  0.7915
   8.100   1.5547   0.00821   0.00446  -0.1292  0.5264  0.7917
   8.150   1.5586   0.00823   0.00448  -0.1290  0.5258  0.7918
   8.200   1.5628   0.00825   0.00450  -0.1288  0.5254  0.7919
   8.250   1.5664   0.00827   0.00452  -0.1285  0.5247  0.7921
   8.300   1.5702   0.00829   0.00455  -0.1283  0.5242  0.7923
   8.350   1.5737   0.00832   0.00458  -0.1280  0.5235  0.7924
   8.400   1.5771   0.00835   0.00460  -0.1277  0.5226  0.7926
   8.450   1.5810   0.00838   0.00464  -0.1275  0.5221  0.7927
   8.500   1.5848   0.00842   0.00468  -0.1273  0.5212  0.7929
   8.550   1.5889   0.00845   0.00471  -0.1271  0.5206  0.7931
   8.600   1.5931   0.00848   0.00474  -0.1270  0.5199  0.7932
   8.650   1.5975   0.00849   0.00476  -0.1269  0.5198  0.7934
   8.700   1.6019   0.00850   0.00478  -0.1267  0.5196  0.7935
   8.750   1.6063   0.00851   0.00480  -0.1266  0.5194  0.7937
   8.800   1.6108   0.00852   0.00482  -0.1266  0.5192  0.7938
   8.850   1.6153   0.00853   0.00484  -0.1265  0.5190  0.7940
   8.900   1.6198   0.00854   0.00486  -0.1264  0.5187  0.7941
   8.950   1.6244   0.00856   0.00488  -0.1263  0.5184  0.7943
   9.000   1.6289   0.00857   0.00490  -0.1263  0.5180  0.7944
   9.050   1.6335   0.00858   0.00492  -0.1262  0.5176  0.7946
   9.100   1.6381   0.00859   0.00495  -0.1261  0.5173  0.7947
   9.150   1.6427   0.00861   0.00497  -0.1261  0.5168  0.7949
   9.200   1.6473   0.00862   0.00499  -0.1260  0.5163  0.7950
   9.250   1.6519   0.00863   0.00500  -0.1260  0.5156  0.7952
   9.300   1.6565   0.00864   0.00503  -0.1259  0.5150  0.7953
   9.350   1.6610   0.00866   0.00505  -0.1258  0.5144  0.7955
   9.400   1.6654   0.00868   0.00507  -0.1258  0.5137  0.7956
   9.450   1.6697   0.00869   0.00509  -0.1256  0.5129  0.7958
   9.500   1.6739   0.00871   0.00512  -0.1255  0.5121  0.7959
   9.550   1.6780   0.00873   0.00514  -0.1254  0.5113  0.7961
   9.600   1.6818   0.00876   0.00516  -0.1252  0.5103  0.7962
   9.650   1.6854   0.00879   0.00519  -0.1249  0.5091  0.7964
   9.700   1.6889   0.00882   0.00522  -0.1246  0.5082  0.7965
   9.750   1.6922   0.00885   0.00525  -0.1243  0.5072  0.7967
   9.800   1.6948   0.00889   0.00529  -0.1239  0.5060  0.7969
   9.850   1.6961   0.00895   0.00535  -0.1232  0.5046  0.7970
   9.900   1.6981   0.00900   0.00540  -0.1227  0.5035  0.7972
   9.950   1.6995   0.00907   0.00546  -0.1220  0.5022  0.7974
  10.000   1.7011   0.00913   0.00552  -0.1214  0.5009  0.7976
  10.050   1.7036   0.00918   0.00558  -0.1210  0.4999  0.7977
  10.100   1.7080   0.00921   0.00561  -0.1209  0.4993  0.7978
  10.150   1.7122   0.00923   0.00564  -0.1208  0.4988  0.7980
  10.200   1.7164   0.00926   0.00568  -0.1207  0.4980  0.7981
  10.250   1.7203   0.00930   0.00572  -0.1205  0.4970  0.7982
  10.300   1.7239   0.00933   0.00576  -0.1203  0.4956  0.7984
  10.350   1.7276   0.00937   0.00580  -0.1201  0.4947  0.7985
  10.400   1.7301   0.00943   0.00587  -0.1197  0.4926  0.7986
  10.450   1.7325   0.00949   0.00593  -0.1193  0.4912  0.7988
  10.500   1.7330   0.00958   0.00602  -0.1185  0.4888  0.7989
  10.550   1.7325   0.00969   0.00612  -0.1175  0.4863  0.7991
  10.600   1.7303   0.00984   0.00626  -0.1163  0.4833  0.7993
  10.650   1.7308   0.00995   0.00636  -0.1155  0.4817  0.7994
  10.700   1.7304   0.01008   0.00648  -0.1146  0.4797  0.7995
  10.750   1.7323   0.01016   0.00657  -0.1141  0.4781  0.7996
  10.800   1.7308   0.01031   0.00671  -0.1130  0.4742  0.7998
  10.850   1.7317   0.01042   0.00682  -0.1124  0.4723  0.7999
  10.950   1.7262   0.01082   0.00719  -0.1098  0.4661  0.8007
  11.000   1.7198   0.01112   0.00747  -0.1080  0.4626  0.8014
  11.050   1.7164   0.01135   0.00770  -0.1066  0.4599  0.8020
  11.100   1.7158   0.01152   0.00787  -0.1058  0.4578  0.8026
  11.150   1.7150   0.01170   0.00805  -0.1049  0.4557  0.8032
  11.200   1.7129   0.01192   0.00827  -0.1038  0.4529  0.8037
  11.250   1.7096   0.01218   0.00853  -0.1026  0.4502  0.8043
  11.300   1.7036   0.01254   0.00889  -0.1010  0.4472  0.8050
  11.350   1.6964   0.01296   0.00930  -0.0992  0.4442  0.8057
  11.400   1.6878   0.01346   0.00979  -0.0973  0.4410  0.8064
  11.450   1.6858   0.01373   0.01007  -0.0963  0.4391  0.8069
  11.500   1.6825   0.01407   0.01040  -0.0952  0.4367  0.8074
  11.550   1.6800   0.01438   0.01072  -0.0943  0.4344  0.8079
  11.600   1.6757   0.01477   0.01112  -0.0930  0.4320  0.8084
  11.650   1.6694   0.01527   0.01161  -0.0916  0.4293  0.8089
  11.700   1.6564   0.01609   0.01242  -0.0893  0.4255  0.8096
  11.750   1.6476   0.01675   0.01309  -0.0877  0.4230  0.8102
  11.800   1.6398   0.01740   0.01373  -0.0862  0.4205  0.8107
  11.850   1.6347   0.01793   0.01427  -0.0850  0.4182  0.8112
  11.900   1.6302   0.01843   0.01478  -0.0840  0.4158  0.8116
  11.950   1.6256   0.01895   0.01530  -0.0829  0.4136  0.8121
  12.000   1.6163   0.01972   0.01607  -0.0814  0.4105  0.8126
