  
       XFOIL         Version 6.94
  
 Calculated polar for: 1080                                            
  
 1 1 Reynolds number fixed          Mach number fixed         
  
 xtrf =   1.000 (top)        1.000 (bottom)  
 Mach =   0.000     Re =     2.000 e 6     Ncrit =   9.000
  
  alpha     CL        CD       CDp       CM    Top_Xtr Bot_Xtr
 ------- -------- --------- --------- -------- ------- -------
   6.000   1.3293   0.00836   0.00443  -0.1260  0.5388  0.7794
   6.050   1.3339   0.00836   0.00444  -0.1259  0.5387  0.7795
   6.100   1.3385   0.00837   0.00445  -0.1259  0.5386  0.7795
   6.150   1.3432   0.00837   0.00446  -0.1258  0.5385  0.7796
   6.200   1.3477   0.00838   0.00447  -0.1257  0.5384  0.7796
   6.250   1.3523   0.00839   0.00448  -0.1256  0.5383  0.7796
   6.300   1.3567   0.00839   0.00449  -0.1255  0.5381  0.7797
   6.350   1.3611   0.00840   0.00450  -0.1253  0.5380  0.7797
   6.400   1.3656   0.00840   0.00451  -0.1252  0.5378  0.7798
   6.450   1.3700   0.00841   0.00452  -0.1251  0.5377  0.7798
   6.500   1.3745   0.00842   0.00453  -0.1250  0.5375  0.7798
   6.550   1.3788   0.00842   0.00453  -0.1248  0.5373  0.7799
   6.600   1.3833   0.00843   0.00455  -0.1247  0.5371  0.7799
   6.650   1.3878   0.00843   0.00456  -0.1246  0.5369  0.7799
   6.700   1.3923   0.00844   0.00457  -0.1245  0.5368  0.7800
   6.750   1.3967   0.00844   0.00457  -0.1244  0.5365  0.7802
   6.800   1.4012   0.00844   0.00458  -0.1243  0.5363  0.7804
   6.850   1.4058   0.00844   0.00458  -0.1242  0.5361  0.7806
   6.900   1.4104   0.00845   0.00459  -0.1241  0.5359  0.7809
   6.950   1.4148   0.00845   0.00459  -0.1240  0.5356  0.7811
   7.000   1.4194   0.00845   0.00460  -0.1239  0.5354  0.7813
   7.050   1.4239   0.00845   0.00461  -0.1238  0.5351  0.7816
   7.100   1.4284   0.00846   0.00461  -0.1237  0.5348  0.7818
   7.150   1.4330   0.00846   0.00462  -0.1236  0.5346  0.7820
   7.200   1.4374   0.00846   0.00463  -0.1235  0.5342  0.7823
   7.250   1.4417   0.00847   0.00464  -0.1234  0.5340  0.7825
   7.300   1.4462   0.00848   0.00465  -0.1233  0.5337  0.7827
   7.350   1.4504   0.00848   0.00466  -0.1231  0.5334  0.7829
   7.400   1.4546   0.00848   0.00467  -0.1230  0.5331  0.7831
   7.450   1.4589   0.00849   0.00468  -0.1228  0.5327  0.7833
   7.500   1.4633   0.00850   0.00470  -0.1227  0.5325  0.7835
   7.550   1.4675   0.00850   0.00471  -0.1226  0.5321  0.7837
   7.600   1.4718   0.00851   0.00472  -0.1225  0.5318  0.7839
   7.650   1.4762   0.00852   0.00473  -0.1223  0.5315  0.7841
   7.700   1.4805   0.00852   0.00474  -0.1222  0.5312  0.7843
   7.750   1.4849   0.00853   0.00475  -0.1221  0.5309  0.7845
   7.800   1.4892   0.00854   0.00476  -0.1220  0.5305  0.7846
   7.850   1.4935   0.00855   0.00478  -0.1219  0.5302  0.7848
   7.900   1.4978   0.00856   0.00479  -0.1217  0.5299  0.7850
   7.950   1.5022   0.00857   0.00480  -0.1216  0.5295  0.7852
   8.000   1.5063   0.00858   0.00481  -0.1215  0.5291  0.7854
   8.050   1.5105   0.00859   0.00483  -0.1213  0.5287  0.7856
   8.100   1.5146   0.00860   0.00484  -0.1212  0.5283  0.7857
   8.150   1.5186   0.00862   0.00486  -0.1210  0.5278  0.7859
   8.200   1.5226   0.00863   0.00488  -0.1208  0.5274  0.7861
   8.250   1.5265   0.00865   0.00489  -0.1206  0.5269  0.7863
   8.300   1.5301   0.00867   0.00491  -0.1203  0.5263  0.7865
   8.350   1.5340   0.00869   0.00494  -0.1202  0.5258  0.7866
   8.400   1.5377   0.00872   0.00496  -0.1199  0.5253  0.7868
   8.450   1.5413   0.00874   0.00499  -0.1197  0.5247  0.7870
   8.500   1.5451   0.00877   0.00502  -0.1195  0.5242  0.7872
   8.550   1.5485   0.00880   0.00505  -0.1192  0.5234  0.7874
   8.600   1.5520   0.00884   0.00509  -0.1189  0.5228  0.7875
   8.650   1.5556   0.00887   0.00513  -0.1187  0.5221  0.7877
   8.700   1.5592   0.00891   0.00516  -0.1185  0.5213  0.7879
   8.750   1.5632   0.00895   0.00520  -0.1183  0.5207  0.7880
   8.800   1.5673   0.00899   0.00524  -0.1182  0.5200  0.7882
   8.850   1.5712   0.00901   0.00527  -0.1180  0.5198  0.7884
   8.900   1.5751   0.00902   0.00529  -0.1178  0.5197  0.7885
   8.950   1.5792   0.00904   0.00532  -0.1177  0.5196  0.7887
   9.000   1.5832   0.00906   0.00535  -0.1175  0.5193  0.7889
   9.050   1.5873   0.00908   0.00537  -0.1174  0.5192  0.7890
   9.100   1.5914   0.00909   0.00540  -0.1172  0.5189  0.7892
   9.150   1.5955   0.00911   0.00543  -0.1171  0.5187  0.7894
   9.200   1.5997   0.00913   0.00545  -0.1170  0.5184  0.7895
   9.250   1.6039   0.00915   0.00548  -0.1169  0.5181  0.7897
   9.300   1.6081   0.00917   0.00551  -0.1167  0.5178  0.7899
   9.350   1.6123   0.00919   0.00554  -0.1166  0.5175  0.7900
   9.400   1.6165   0.00921   0.00557  -0.1165  0.5171  0.7902
   9.450   1.6207   0.00923   0.00560  -0.1164  0.5167  0.7903
   9.500   1.6248   0.00925   0.00563  -0.1163  0.5163  0.7905
   9.550   1.6288   0.00928   0.00566  -0.1161  0.5158  0.7907
   9.600   1.6327   0.00930   0.00569  -0.1160  0.5154  0.7908
   9.650   1.6366   0.00933   0.00573  -0.1158  0.5149  0.7910
   9.700   1.6404   0.00936   0.00576  -0.1156  0.5142  0.7912
   9.750   1.6443   0.00939   0.00580  -0.1155  0.5138  0.7913
   9.800   1.6479   0.00941   0.00583  -0.1153  0.5130  0.7915
   9.850   1.6517   0.00945   0.00587  -0.1151  0.5125  0.7917
   9.900   1.6551   0.00948   0.00591  -0.1148  0.5117  0.7919
   9.950   1.6585   0.00952   0.00594  -0.1146  0.5110  0.7920
  10.000   1.6615   0.00956   0.00598  -0.1143  0.5100  0.7922
  10.050   1.6649   0.00960   0.00603  -0.1140  0.5093  0.7924
  10.100   1.6677   0.00964   0.00608  -0.1137  0.5084  0.7926
  10.150   1.6703   0.00970   0.00613  -0.1133  0.5075  0.7928
  10.200   1.6718   0.00976   0.00620  -0.1127  0.5064  0.7930
  10.250   1.6732   0.00984   0.00627  -0.1121  0.5055  0.7932
  10.300   1.6736   0.00993   0.00636  -0.1113  0.5042  0.7934
  10.350   1.6743   0.01003   0.00645  -0.1106  0.5030  0.7936
  10.400   1.6752   0.01012   0.00654  -0.1100  0.5018  0.7938
  10.450   1.6764   0.01021   0.00664  -0.1094  0.5007  0.7941
  10.500   1.6783   0.01029   0.00672  -0.1089  0.4997  0.7943
  10.550   1.6821   0.01033   0.00677  -0.1087  0.4992  0.7944
  10.600   1.6858   0.01038   0.00682  -0.1086  0.4985  0.7946
  10.650   1.6891   0.01043   0.00688  -0.1083  0.4976  0.7948
  10.700   1.6925   0.01048   0.00696  -0.1081  0.4970  0.7950
  10.750   1.6952   0.01055   0.00703  -0.1078  0.4956  0.7952
  10.800   1.6980   0.01061   0.00710  -0.1075  0.4945  0.7953
  10.850   1.7004   0.01069   0.00718  -0.1071  0.4931  0.7955
  10.900   1.7025   0.01077   0.00726  -0.1067  0.4918  0.7957
  10.950   1.7026   0.01091   0.00739  -0.1059  0.4896  0.7959
  11.000   1.7015   0.01107   0.00755  -0.1050  0.4876  0.7962
  11.050   1.7017   0.01121   0.00769  -0.1043  0.4863  0.7964
  11.100   1.6987   0.01143   0.00790  -0.1030  0.4840  0.7966
  11.150   1.6940   0.01171   0.00817  -0.1016  0.4816  0.7969
  11.200   1.6916   0.01194   0.00840  -0.1005  0.4796  0.7971
  11.250   1.6935   0.01206   0.00852  -0.1000  0.4784  0.7973
  11.300   1.6949   0.01218   0.00865  -0.0996  0.4770  0.7975
  11.350   1.6946   0.01236   0.00883  -0.0988  0.4749  0.7977
  11.400   1.6935   0.01257   0.00904  -0.0980  0.4731  0.7979
  11.450   1.6909   0.01284   0.00930  -0.0969  0.4705  0.7981
  11.500   1.6851   0.01322   0.00967  -0.0954  0.4674  0.7983
  11.550   1.6790   0.01362   0.01007  -0.0938  0.4651  0.7985
  11.600   1.6694   0.01418   0.01062  -0.0919  0.4619  0.7988
  11.650   1.6621   0.01469   0.01111  -0.0902  0.4588  0.7990
  11.700   1.6624   0.01490   0.01133  -0.0897  0.4575  0.7991
  11.750   1.6596   0.01524   0.01167  -0.0887  0.4556  0.7993
  11.800   1.6540   0.01571   0.01214  -0.0874  0.4526  0.7995
  11.850   1.6434   0.01641   0.01283  -0.0854  0.4490  0.7997
  11.900   1.6326   0.01714   0.01355  -0.0835  0.4459  0.7998
  12.000   1.6059   0.01894   0.01535  -0.0792  0.4397  0.8008
