  
       XFOIL         Version 6.94
  
 Calculated polar for: 1080                                            
  
 1 1 Reynolds number fixed          Mach number fixed         
  
 xtrf =   1.000 (top)        1.000 (bottom)  
 Mach =   0.000     Re =     2.000 e 6     Ncrit =   9.000
  
  alpha     CL        CD       CDp       CM    Top_Xtr Bot_Xtr
 ------- -------- --------- --------- -------- ------- -------
   6.000   1.4303   0.00840   0.00447  -0.1464  0.5385  0.7869
   6.050   1.4347   0.00840   0.00447  -0.1462  0.5383  0.7870
   6.100   1.4391   0.00839   0.00448  -0.1461  0.5382  0.7871
   6.150   1.4435   0.00839   0.00448  -0.1460  0.5381  0.7872
   6.200   1.4480   0.00839   0.00448  -0.1458  0.5380  0.7874
   6.250   1.4524   0.00839   0.00449  -0.1457  0.5379  0.7875
   6.300   1.4568   0.00839   0.00449  -0.1456  0.5377  0.7876
   6.350   1.4614   0.00840   0.00450  -0.1455  0.5375  0.7877
   6.400   1.4659   0.00840   0.00451  -0.1454  0.5374  0.7878
   6.450   1.4704   0.00840   0.00451  -0.1453  0.5372  0.7879
   6.500   1.4750   0.00841   0.00452  -0.1452  0.5371  0.7880
   6.550   1.4794   0.00841   0.00453  -0.1450  0.5369  0.7882
   6.600   1.4840   0.00841   0.00454  -0.1449  0.5367  0.7883
   6.650   1.4885   0.00841   0.00454  -0.1448  0.5365  0.7884
   6.700   1.4931   0.00842   0.00455  -0.1447  0.5363  0.7885
   6.750   1.4977   0.00842   0.00456  -0.1447  0.5361  0.7886
   6.800   1.5023   0.00842   0.00457  -0.1446  0.5359  0.7887
   6.850   1.5069   0.00842   0.00457  -0.1445  0.5356  0.7889
   6.900   1.5115   0.00843   0.00458  -0.1444  0.5354  0.7890
   6.950   1.5162   0.00844   0.00459  -0.1443  0.5352  0.7891
   7.000   1.5208   0.00844   0.00460  -0.1442  0.5349  0.7892
   7.050   1.5255   0.00844   0.00461  -0.1442  0.5347  0.7893
   7.100   1.5300   0.00844   0.00461  -0.1441  0.5344  0.7894
   7.150   1.5346   0.00845   0.00462  -0.1440  0.5341  0.7896
   7.200   1.5391   0.00845   0.00463  -0.1439  0.5338  0.7897
   7.250   1.5436   0.00846   0.00464  -0.1438  0.5336  0.7898
   7.300   1.5481   0.00846   0.00465  -0.1437  0.5333  0.7899
   7.350   1.5525   0.00847   0.00465  -0.1436  0.5329  0.7901
   7.400   1.5570   0.00848   0.00467  -0.1435  0.5327  0.7902
   7.450   1.5614   0.00848   0.00467  -0.1433  0.5324  0.7903
   7.500   1.5658   0.00848   0.00469  -0.1432  0.5321  0.7904
   7.550   1.5702   0.00849   0.00470  -0.1431  0.5318  0.7906
   7.600   1.5746   0.00849   0.00471  -0.1430  0.5314  0.7907
   7.650   1.5791   0.00850   0.00472  -0.1429  0.5311  0.7908
   7.700   1.5836   0.00851   0.00473  -0.1428  0.5309  0.7909
   7.750   1.5879   0.00851   0.00474  -0.1427  0.5305  0.7911
   7.800   1.5924   0.00852   0.00475  -0.1426  0.5302  0.7912
   7.850   1.5968   0.00853   0.00477  -0.1425  0.5299  0.7913
   7.900   1.6011   0.00854   0.00477  -0.1423  0.5295  0.7915
   7.950   1.6055   0.00855   0.00479  -0.1422  0.5292  0.7916
   8.000   1.6097   0.00855   0.00480  -0.1421  0.5287  0.7917
   8.050   1.6139   0.00856   0.00481  -0.1419  0.5283  0.7919
   8.100   1.6182   0.00858   0.00482  -0.1418  0.5280  0.7920
   8.150   1.6223   0.00859   0.00484  -0.1416  0.5275  0.7922
   8.200   1.6261   0.00860   0.00485  -0.1414  0.5270  0.7923
   8.250   1.6300   0.00862   0.00487  -0.1412  0.5266  0.7924
   8.300   1.6335   0.00864   0.00489  -0.1409  0.5261  0.7926
   8.350   1.6372   0.00866   0.00491  -0.1407  0.5257  0.7927
   8.400   1.6405   0.00868   0.00494  -0.1403  0.5250  0.7929
   8.450   1.6442   0.00871   0.00496  -0.1401  0.5245  0.7931
   8.500   1.6477   0.00874   0.00499  -0.1398  0.5239  0.7932
   8.550   1.6514   0.00876   0.00502  -0.1396  0.5233  0.7934
   8.600   1.6552   0.00880   0.00505  -0.1394  0.5225  0.7935
   8.650   1.6592   0.00883   0.00509  -0.1392  0.5219  0.7936
   8.700   1.6634   0.00886   0.00512  -0.1391  0.5213  0.7938
   8.750   1.6677   0.00890   0.00516  -0.1390  0.5205  0.7939
   8.800   1.6722   0.00893   0.00519  -0.1389  0.5200  0.7941
   8.850   1.6765   0.00894   0.00521  -0.1388  0.5198  0.7942
   8.900   1.6809   0.00896   0.00524  -0.1387  0.5197  0.7944
   8.950   1.6852   0.00897   0.00526  -0.1386  0.5196  0.7945
   9.000   1.6897   0.00898   0.00528  -0.1385  0.5194  0.7946
   9.050   1.6940   0.00899   0.00530  -0.1384  0.5192  0.7948
   9.100   1.6984   0.00900   0.00532  -0.1384  0.5190  0.7949
   9.150   1.7029   0.00902   0.00534  -0.1383  0.5188  0.7951
   9.200   1.7073   0.00903   0.00537  -0.1382  0.5186  0.7952
   9.250   1.7117   0.00904   0.00539  -0.1381  0.5182  0.7954
   9.300   1.7162   0.00906   0.00541  -0.1381  0.5179  0.7955
   9.350   1.7206   0.00907   0.00544  -0.1380  0.5176  0.7956
   9.400   1.7251   0.00909   0.00546  -0.1379  0.5173  0.7958
   9.450   1.7296   0.00911   0.00548  -0.1379  0.5169  0.7959
   9.500   1.7340   0.00912   0.00551  -0.1378  0.5166  0.7960
   9.550   1.7385   0.00914   0.00553  -0.1377  0.5161  0.7962
   9.600   1.7429   0.00916   0.00556  -0.1376  0.5157  0.7963
   9.650   1.7474   0.00917   0.00558  -0.1376  0.5152  0.7965
   9.700   1.7518   0.00919   0.00561  -0.1375  0.5146  0.7966
   9.750   1.7561   0.00921   0.00563  -0.1374  0.5141  0.7967
   9.800   1.7602   0.00923   0.00566  -0.1373  0.5136  0.7969
   9.850   1.7641   0.00925   0.00569  -0.1371  0.5128  0.7970
   9.900   1.7678   0.00927   0.00572  -0.1369  0.5121  0.7972
   9.950   1.7714   0.00930   0.00575  -0.1367  0.5114  0.7973
  10.000   1.7748   0.00933   0.00578  -0.1364  0.5107  0.7974
  10.050   1.7780   0.00936   0.00581  -0.1361  0.5098  0.7976
  10.100   1.7810   0.00940   0.00585  -0.1358  0.5089  0.7977
  10.150   1.7839   0.00944   0.00589  -0.1354  0.5079  0.7979
  10.200   1.7866   0.00948   0.00593  -0.1350  0.5070  0.7980
  10.250   1.7895   0.00952   0.00597  -0.1347  0.5063  0.7982
  10.300   1.7913   0.00958   0.00603  -0.1341  0.5050  0.7983
  10.350   1.7931   0.00965   0.00609  -0.1336  0.5038  0.7984
  10.400   1.7946   0.00972   0.00616  -0.1330  0.5027  0.7986
  10.450   1.7955   0.00980   0.00624  -0.1323  0.5015  0.7987
  10.500   1.7958   0.00989   0.00633  -0.1315  0.5001  0.7989
  10.550   1.7998   0.00993   0.00638  -0.1314  0.4995  0.7990
  10.600   1.8039   0.00996   0.00643  -0.1313  0.4990  0.7991
  10.650   1.8079   0.00999   0.00647  -0.1311  0.4984  0.7992
  10.700   1.8117   0.01003   0.00652  -0.1310  0.4976  0.7993
  10.750   1.8153   0.01007   0.00657  -0.1308  0.4966  0.7994
  10.800   1.8188   0.01012   0.00662  -0.1306  0.4956  0.7995
  10.850   1.8220   0.01017   0.00668  -0.1303  0.4946  0.7996
  10.900   1.8250   0.01022   0.00674  -0.1300  0.4934  0.7997
  10.950   1.8272   0.01029   0.00681  -0.1296  0.4918  0.7998
  11.000   1.8286   0.01038   0.00689  -0.1290  0.4902  0.7999
  11.100   1.8284   0.01062   0.00712  -0.1273  0.4864  0.8006
  11.150   1.8272   0.01077   0.00726  -0.1263  0.4843  0.8012
  11.200   1.8248   0.01095   0.00744  -0.1251  0.4821  0.8018
  11.250   1.8216   0.01116   0.00765  -0.1238  0.4797  0.8024
  11.300   1.8235   0.01125   0.00774  -0.1234  0.4785  0.8028
  11.350   1.8251   0.01136   0.00785  -0.1229  0.4770  0.8033
  11.400   1.8258   0.01149   0.00799  -0.1222  0.4750  0.8038
  11.450   1.8247   0.01166   0.00816  -0.1213  0.4725  0.8043
  11.500   1.8194   0.01197   0.00846  -0.1197  0.4689  0.8050
  11.550   1.8179   0.01217   0.00866  -0.1188  0.4672  0.8055
  11.600   1.8054   0.01273   0.00920  -0.1161  0.4627  0.8063
  11.650   1.7993   0.01311   0.00958  -0.1145  0.4600  0.8069
  11.700   1.7974   0.01337   0.00984  -0.1136  0.4579  0.8073
  11.750   1.7958   0.01362   0.01009  -0.1127  0.4560  0.8078
  11.800   1.7944   0.01387   0.01035  -0.1118  0.4542  0.8082
  11.850   1.7867   0.01437   0.01085  -0.1101  0.4509  0.8088
  11.900   1.7831   0.01473   0.01121  -0.1090  0.4489  0.8093
  11.950   1.7636   0.01580   0.01226  -0.1058  0.4439  0.8100
  12.000   1.7522   0.01658   0.01304  -0.1038  0.4411  0.8106
