  
       XFOIL         Version 6.94
  
 Calculated polar for: 1080                                            
  
 1 1 Reynolds number fixed          Mach number fixed         
  
 xtrf =   1.000 (top)        1.000 (bottom)  
 Mach =   0.000     Re =     2.000 e 6     Ncrit =   9.000
  
  alpha     CL        CD       CDp       CM    Top_Xtr Bot_Xtr
 ------- -------- --------- --------- -------- ------- -------
   6.000   1.3744   0.00840   0.00446  -0.1350  0.5386  0.7822
   6.050   1.3790   0.00840   0.00447  -0.1349  0.5385  0.7823
   6.100   1.3837   0.00840   0.00448  -0.1348  0.5384  0.7825
   6.150   1.3883   0.00840   0.00448  -0.1347  0.5383  0.7826
   6.200   1.3929   0.00841   0.00449  -0.1347  0.5381  0.7827
   6.250   1.3975   0.00841   0.00449  -0.1345  0.5380  0.7829
   6.300   1.4022   0.00841   0.00451  -0.1345  0.5379  0.7831
   6.350   1.4069   0.00842   0.00452  -0.1344  0.5377  0.7832
   6.400   1.4115   0.00842   0.00452  -0.1343  0.5376  0.7833
   6.450   1.4161   0.00843   0.00453  -0.1343  0.5374  0.7835
   6.500   1.4206   0.00843   0.00454  -0.1341  0.5373  0.7837
   6.550   1.4251   0.00843   0.00455  -0.1340  0.5371  0.7838
   6.600   1.4296   0.00844   0.00456  -0.1339  0.5369  0.7840
   6.650   1.4341   0.00844   0.00457  -0.1338  0.5367  0.7841
   6.700   1.4385   0.00844   0.00457  -0.1337  0.5365  0.7843
   6.750   1.4430   0.00845   0.00458  -0.1336  0.5363  0.7844
   6.800   1.4474   0.00846   0.00459  -0.1335  0.5361  0.7846
   6.850   1.4519   0.00846   0.00460  -0.1334  0.5359  0.7847
   6.900   1.4563   0.00846   0.00461  -0.1332  0.5356  0.7849
   6.950   1.4608   0.00847   0.00462  -0.1331  0.5354  0.7850
   7.000   1.4652   0.00847   0.00463  -0.1330  0.5351  0.7852
   7.050   1.4697   0.00848   0.00464  -0.1329  0.5349  0.7853
   7.100   1.4743   0.00849   0.00465  -0.1328  0.5347  0.7855
   7.150   1.4788   0.00849   0.00466  -0.1327  0.5344  0.7856
   7.200   1.4833   0.00849   0.00467  -0.1326  0.5341  0.7858
   7.250   1.4878   0.00850   0.00467  -0.1325  0.5338  0.7859
   7.300   1.4923   0.00850   0.00468  -0.1324  0.5335  0.7861
   7.350   1.4968   0.00851   0.00469  -0.1324  0.5332  0.7862
   7.400   1.5013   0.00851   0.00470  -0.1323  0.5329  0.7864
   7.450   1.5059   0.00852   0.00471  -0.1322  0.5326  0.7865
   7.500   1.5104   0.00852   0.00473  -0.1321  0.5323  0.7867
   7.550   1.5149   0.00853   0.00474  -0.1320  0.5320  0.7868
   7.600   1.5193   0.00854   0.00475  -0.1319  0.5317  0.7870
   7.650   1.5236   0.00855   0.00476  -0.1318  0.5314  0.7871
   7.700   1.5280   0.00856   0.00478  -0.1316  0.5312  0.7873
   7.750   1.5321   0.00856   0.00479  -0.1315  0.5308  0.7874
   7.800   1.5362   0.00857   0.00480  -0.1313  0.5305  0.7876
   7.850   1.5405   0.00858   0.00481  -0.1312  0.5302  0.7877
   7.900   1.5445   0.00859   0.00482  -0.1310  0.5298  0.7879
   7.950   1.5487   0.00860   0.00484  -0.1308  0.5295  0.7880
   8.000   1.5528   0.00861   0.00485  -0.1307  0.5291  0.7882
   8.050   1.5570   0.00862   0.00487  -0.1305  0.5288  0.7883
   8.100   1.5610   0.00864   0.00488  -0.1303  0.5283  0.7885
   8.150   1.5650   0.00865   0.00490  -0.1302  0.5279  0.7886
   8.200   1.5690   0.00867   0.00491  -0.1300  0.5275  0.7888
   8.250   1.5729   0.00868   0.00493  -0.1298  0.5270  0.7889
   8.300   1.5767   0.00870   0.00495  -0.1296  0.5266  0.7891
   8.350   1.5804   0.00872   0.00497  -0.1293  0.5260  0.7892
   8.400   1.5841   0.00874   0.00499  -0.1291  0.5255  0.7894
   8.450   1.5878   0.00877   0.00502  -0.1289  0.5249  0.7895
   8.500   1.5916   0.00879   0.00504  -0.1286  0.5243  0.7897
   8.550   1.5953   0.00882   0.00507  -0.1284  0.5237  0.7898
   8.600   1.5990   0.00885   0.00510  -0.1282  0.5230  0.7900
   8.650   1.6032   0.00888   0.00514  -0.1281  0.5224  0.7901
   8.700   1.6072   0.00892   0.00518  -0.1279  0.5217  0.7903
   8.750   1.6114   0.00896   0.00521  -0.1278  0.5210  0.7904
   8.800   1.6158   0.00899   0.00525  -0.1277  0.5203  0.7906
   8.850   1.6202   0.00902   0.00528  -0.1277  0.5199  0.7907
   8.900   1.6245   0.00903   0.00530  -0.1275  0.5198  0.7909
   8.950   1.6287   0.00904   0.00532  -0.1274  0.5196  0.7910
   9.000   1.6329   0.00906   0.00535  -0.1273  0.5195  0.7912
   9.050   1.6369   0.00908   0.00537  -0.1271  0.5193  0.7913
   9.100   1.6409   0.00909   0.00540  -0.1270  0.5191  0.7915
   9.150   1.6449   0.00911   0.00543  -0.1268  0.5189  0.7916
   9.200   1.6488   0.00913   0.00546  -0.1266  0.5186  0.7918
   9.250   1.6528   0.00915   0.00548  -0.1265  0.5183  0.7920
   9.300   1.6569   0.00917   0.00551  -0.1263  0.5181  0.7921
   9.350   1.6609   0.00919   0.00554  -0.1262  0.5178  0.7923
   9.400   1.6650   0.00921   0.00557  -0.1261  0.5175  0.7924
   9.450   1.6691   0.00923   0.00560  -0.1259  0.5171  0.7926
   9.500   1.6733   0.00925   0.00563  -0.1258  0.5167  0.7927
   9.550   1.6775   0.00927   0.00566  -0.1257  0.5163  0.7929
   9.600   1.6817   0.00929   0.00568  -0.1256  0.5159  0.7930
   9.650   1.6859   0.00931   0.00571  -0.1255  0.5154  0.7932
   9.700   1.6901   0.00933   0.00574  -0.1254  0.5149  0.7934
   9.750   1.6943   0.00936   0.00577  -0.1253  0.5145  0.7935
   9.800   1.6984   0.00938   0.00580  -0.1252  0.5138  0.7937
   9.850   1.7025   0.00940   0.00583  -0.1250  0.5132  0.7938
   9.900   1.7063   0.00943   0.00586  -0.1249  0.5125  0.7940
   9.950   1.7100   0.00946   0.00590  -0.1247  0.5120  0.7942
  10.000   1.7132   0.00949   0.00593  -0.1244  0.5111  0.7943
  10.050   1.7163   0.00953   0.00598  -0.1241  0.5103  0.7945
  10.100   1.7192   0.00957   0.00602  -0.1237  0.5095  0.7947
  10.150   1.7220   0.00962   0.00606  -0.1234  0.5087  0.7949
  10.200   1.7244   0.00967   0.00611  -0.1229  0.5077  0.7951
  10.250   1.7266   0.00973   0.00617  -0.1225  0.5067  0.7952
  10.300   1.7286   0.00979   0.00623  -0.1220  0.5057  0.7954
  10.350   1.7306   0.00985   0.00629  -0.1215  0.5048  0.7956
  10.400   1.7320   0.00993   0.00637  -0.1209  0.5037  0.7958
  10.450   1.7325   0.01003   0.00646  -0.1201  0.5025  0.7960
  10.500   1.7318   0.01014   0.00658  -0.1192  0.5009  0.7962
  10.550   1.7333   0.01023   0.00667  -0.1186  0.5001  0.7964
  10.600   1.7372   0.01027   0.00671  -0.1185  0.4995  0.7966
  10.650   1.7413   0.01030   0.00676  -0.1184  0.4989  0.7967
  10.700   1.7452   0.01034   0.00682  -0.1183  0.4982  0.7969
  10.750   1.7489   0.01039   0.00687  -0.1181  0.4976  0.7970
  10.800   1.7524   0.01043   0.00693  -0.1179  0.4966  0.7972
  10.850   1.7556   0.01049   0.00699  -0.1177  0.4956  0.7973
  10.900   1.7582   0.01056   0.00706  -0.1173  0.4944  0.7975
  10.950   1.7594   0.01065   0.00716  -0.1167  0.4925  0.7977
  11.000   1.7608   0.01075   0.00725  -0.1162  0.4910  0.7978
  11.050   1.7621   0.01085   0.00736  -0.1156  0.4896  0.7980
  11.100   1.7617   0.01099   0.00749  -0.1148  0.4875  0.7982
  11.150   1.7613   0.01114   0.00764  -0.1140  0.4858  0.7984
  11.200   1.7576   0.01138   0.00786  -0.1126  0.4836  0.7986
  11.250   1.7540   0.01162   0.00810  -0.1113  0.4814  0.7988
  11.300   1.7530   0.01181   0.00829  -0.1104  0.4796  0.7989
  11.350   1.7544   0.01193   0.00841  -0.1099  0.4783  0.7991
  11.400   1.7554   0.01207   0.00855  -0.1093  0.4770  0.7992
  11.450   1.7552   0.01224   0.00873  -0.1086  0.4751  0.7993
  11.500   1.7546   0.01243   0.00891  -0.1078  0.4730  0.7995
  11.550   1.7517   0.01270   0.00918  -0.1067  0.4703  0.7996
  11.600   1.7447   0.01311   0.00958  -0.1049  0.4671  0.7998
  11.650   1.7331   0.01371   0.01016  -0.1026  0.4633  0.8000
  11.700   1.7314   0.01398   0.01043  -0.1017  0.4622  0.8005
  11.750   1.7237   0.01448   0.01093  -0.1000  0.4590  0.8012
  11.800   1.7204   0.01483   0.01128  -0.0990  0.4566  0.8018
  11.850   1.7187   0.01512   0.01157  -0.0981  0.4549  0.8023
  11.900   1.7113   0.01566   0.01212  -0.0966  0.4517  0.8030
  11.950   1.7042   0.01621   0.01266  -0.0951  0.4489  0.8037
  12.000   1.6906   0.01708   0.01353  -0.0928  0.4456  0.8045
