  
       XFOIL         Version 6.94
  
 Calculated polar for: 1080                                            
  
 1 1 Reynolds number fixed          Mach number fixed         
  
 xtrf =   1.000 (top)        1.000 (bottom)  
 Mach =   0.000     Re =     2.000 e 6     Ncrit =   9.000
  
  alpha     CL        CD       CDp       CM    Top_Xtr Bot_Xtr
 ------- -------- --------- --------- -------- ------- -------
   6.000   1.3644   0.00850   0.00457  -0.1328  0.5385  0.7800
   6.050   1.3692   0.00851   0.00458  -0.1328  0.5384  0.7801
   6.100   1.3738   0.00851   0.00459  -0.1327  0.5383  0.7803
   6.150   1.3785   0.00851   0.00459  -0.1326  0.5382  0.7805
   6.200   1.3830   0.00851   0.00460  -0.1325  0.5381  0.7807
   6.250   1.3875   0.00852   0.00460  -0.1324  0.5379  0.7808
   6.300   1.3921   0.00852   0.00461  -0.1323  0.5378  0.7810
   6.350   1.3966   0.00852   0.00462  -0.1322  0.5377  0.7812
   6.400   1.4011   0.00853   0.00463  -0.1321  0.5375  0.7813
   6.450   1.4056   0.00854   0.00464  -0.1320  0.5374  0.7815
   6.500   1.4101   0.00854   0.00465  -0.1319  0.5372  0.7817
   6.550   1.4145   0.00854   0.00466  -0.1318  0.5370  0.7818
   6.600   1.4190   0.00855   0.00467  -0.1317  0.5369  0.7820
   6.650   1.4235   0.00855   0.00467  -0.1316  0.5367  0.7822
   6.700   1.4279   0.00856   0.00468  -0.1315  0.5365  0.7823
   6.750   1.4325   0.00856   0.00469  -0.1314  0.5363  0.7825
   6.800   1.4370   0.00856   0.00470  -0.1313  0.5361  0.7827
   6.850   1.4415   0.00857   0.00471  -0.1312  0.5359  0.7828
   6.900   1.4460   0.00857   0.00471  -0.1311  0.5357  0.7830
   6.950   1.4505   0.00858   0.00472  -0.1310  0.5354  0.7832
   7.000   1.4550   0.00858   0.00473  -0.1309  0.5352  0.7833
   7.050   1.4596   0.00859   0.00474  -0.1308  0.5350  0.7835
   7.100   1.4642   0.00859   0.00475  -0.1307  0.5347  0.7836
   7.150   1.4687   0.00860   0.00476  -0.1307  0.5345  0.7838
   7.200   1.4733   0.00860   0.00477  -0.1306  0.5342  0.7840
   7.250   1.4778   0.00861   0.00478  -0.1305  0.5339  0.7842
   7.300   1.4822   0.00861   0.00479  -0.1304  0.5337  0.7843
   7.350   1.4865   0.00862   0.00480  -0.1303  0.5334  0.7845
   7.400   1.4908   0.00863   0.00481  -0.1301  0.5331  0.7846
   7.450   1.4950   0.00863   0.00482  -0.1300  0.5328  0.7848
   7.500   1.4993   0.00864   0.00483  -0.1298  0.5325  0.7850
   7.550   1.5037   0.00865   0.00485  -0.1297  0.5322  0.7852
   7.600   1.5079   0.00865   0.00486  -0.1296  0.5319  0.7853
   7.650   1.5121   0.00866   0.00487  -0.1294  0.5316  0.7855
   7.700   1.5164   0.00867   0.00488  -0.1293  0.5313  0.7857
   7.750   1.5208   0.00868   0.00490  -0.1292  0.5310  0.7858
   7.800   1.5250   0.00868   0.00490  -0.1290  0.5307  0.7860
   7.850   1.5293   0.00869   0.00492  -0.1289  0.5304  0.7861
   7.900   1.5336   0.00870   0.00493  -0.1288  0.5300  0.7863
   7.950   1.5378   0.00871   0.00494  -0.1287  0.5296  0.7865
   8.000   1.5421   0.00872   0.00496  -0.1285  0.5293  0.7866
   8.050   1.5464   0.00873   0.00497  -0.1284  0.5290  0.7868
   8.100   1.5506   0.00874   0.00498  -0.1283  0.5286  0.7869
   8.150   1.5546   0.00875   0.00500  -0.1281  0.5281  0.7871
   8.200   1.5589   0.00877   0.00502  -0.1280  0.5279  0.7873
   8.250   1.5628   0.00879   0.00503  -0.1278  0.5274  0.7874
   8.300   1.5667   0.00880   0.00505  -0.1276  0.5270  0.7876
   8.350   1.5706   0.00882   0.00507  -0.1274  0.5265  0.7877
   8.400   1.5745   0.00885   0.00510  -0.1272  0.5261  0.7879
   8.450   1.5780   0.00887   0.00512  -0.1270  0.5255  0.7881
   8.500   1.5817   0.00889   0.00514  -0.1267  0.5249  0.7882
   8.550   1.5852   0.00892   0.00517  -0.1265  0.5242  0.7884
   8.600   1.5888   0.00896   0.00520  -0.1262  0.5236  0.7886
   8.650   1.5926   0.00899   0.00524  -0.1260  0.5230  0.7887
   8.700   1.5963   0.00902   0.00528  -0.1258  0.5224  0.7889
   8.750   1.5998   0.00906   0.00532  -0.1256  0.5215  0.7890
   8.800   1.6040   0.00910   0.00536  -0.1255  0.5210  0.7892
   8.850   1.6081   0.00914   0.00540  -0.1253  0.5202  0.7893
   8.900   1.6121   0.00917   0.00543  -0.1252  0.5199  0.7895
   8.950   1.6159   0.00919   0.00546  -0.1250  0.5198  0.7896
   9.000   1.6198   0.00920   0.00548  -0.1248  0.5196  0.7898
   9.050   1.6237   0.00922   0.00551  -0.1246  0.5195  0.7900
   9.100   1.6276   0.00924   0.00554  -0.1245  0.5193  0.7901
   9.150   1.6317   0.00926   0.00556  -0.1243  0.5191  0.7903
   9.200   1.6358   0.00928   0.00559  -0.1242  0.5189  0.7904
   9.250   1.6398   0.00929   0.00562  -0.1240  0.5186  0.7906
   9.300   1.6439   0.00931   0.00565  -0.1239  0.5184  0.7907
   9.350   1.6481   0.00934   0.00568  -0.1238  0.5182  0.7909
   9.400   1.6522   0.00936   0.00571  -0.1237  0.5179  0.7910
   9.450   1.6563   0.00938   0.00574  -0.1236  0.5175  0.7912
   9.500   1.6605   0.00940   0.00577  -0.1235  0.5172  0.7914
   9.550   1.6646   0.00942   0.00580  -0.1233  0.5168  0.7915
   9.600   1.6686   0.00944   0.00583  -0.1232  0.5164  0.7917
   9.650   1.6725   0.00947   0.00586  -0.1230  0.5160  0.7918
   9.700   1.6763   0.00950   0.00590  -0.1229  0.5155  0.7920
   9.750   1.6802   0.00952   0.00593  -0.1227  0.5151  0.7922
   9.800   1.6840   0.00955   0.00597  -0.1225  0.5146  0.7923
   9.850   1.6878   0.00958   0.00600  -0.1223  0.5141  0.7925
   9.900   1.6916   0.00961   0.00604  -0.1222  0.5135  0.7927
   9.950   1.6953   0.00964   0.00607  -0.1220  0.5129  0.7928
  10.000   1.6990   0.00967   0.00611  -0.1218  0.5123  0.7930
  10.050   1.7025   0.00971   0.00615  -0.1216  0.5116  0.7932
  10.100   1.7058   0.00974   0.00619  -0.1213  0.5108  0.7934
  10.150   1.7093   0.00978   0.00623  -0.1211  0.5102  0.7935
  10.200   1.7120   0.00983   0.00628  -0.1207  0.5091  0.7937
  10.250   1.7153   0.00987   0.00632  -0.1205  0.5086  0.7939
  10.300   1.7176   0.00993   0.00638  -0.1200  0.5077  0.7941
  10.350   1.7190   0.01000   0.00645  -0.1195  0.5066  0.7943
  10.400   1.7208   0.01007   0.00652  -0.1189  0.5058  0.7945
  10.450   1.7215   0.01016   0.00661  -0.1182  0.5047  0.7947
  10.500   1.7219   0.01026   0.00671  -0.1175  0.5033  0.7949
  10.550   1.7229   0.01036   0.00680  -0.1169  0.5023  0.7951
  10.600   1.7229   0.01047   0.00692  -0.1160  0.5009  0.7953
  10.650   1.7237   0.01058   0.00702  -0.1154  0.4999  0.7955
  10.700   1.7276   0.01062   0.00707  -0.1153  0.4995  0.7957
  10.750   1.7313   0.01066   0.00714  -0.1151  0.4990  0.7959
  10.800   1.7350   0.01071   0.00720  -0.1150  0.4985  0.7960
  10.850   1.7385   0.01076   0.00726  -0.1148  0.4977  0.7962
  10.900   1.7418   0.01082   0.00732  -0.1146  0.4968  0.7963
  10.950   1.7449   0.01088   0.00739  -0.1143  0.4958  0.7965
  11.000   1.7475   0.01095   0.00747  -0.1140  0.4945  0.7967
  11.050   1.7498   0.01104   0.00755  -0.1136  0.4931  0.7969
  11.100   1.7512   0.01114   0.00766  -0.1131  0.4917  0.7970
  11.150   1.7515   0.01127   0.00779  -0.1124  0.4900  0.7972
  11.200   1.7500   0.01145   0.00796  -0.1114  0.4877  0.7975
  11.250   1.7494   0.01162   0.00812  -0.1105  0.4860  0.7976
  11.300   1.7467   0.01185   0.00835  -0.1094  0.4841  0.7979
  11.350   1.7425   0.01213   0.00862  -0.1080  0.4821  0.7981
  11.400   1.7387   0.01241   0.00890  -0.1067  0.4796  0.7983
  11.450   1.7400   0.01254   0.00903  -0.1062  0.4783  0.7984
  11.500   1.7409   0.01270   0.00919  -0.1057  0.4771  0.7986
  11.550   1.7402   0.01290   0.00939  -0.1049  0.4752  0.7988
  11.600   1.7394   0.01311   0.00960  -0.1041  0.4732  0.7989
  11.650   1.7374   0.01337   0.00986  -0.1032  0.4710  0.7991
  11.700   1.7319   0.01376   0.01025  -0.1017  0.4684  0.7993
  11.750   1.7246   0.01423   0.01071  -0.1001  0.4654  0.7995
  11.800   1.7117   0.01496   0.01142  -0.0977  0.4620  0.7997
  11.850   1.7043   0.01550   0.01196  -0.0961  0.4594  0.7998
  11.900   1.7025   0.01581   0.01228  -0.0953  0.4577  0.7999
  11.950   1.7000   0.01615   0.01262  -0.0944  0.4555  0.8003
  12.000   1.6947   0.01664   0.01311  -0.0932  0.4533  0.8009
