  
       XFOIL         Version 6.94
  
 Calculated polar for: 1080                                            
  
 1 1 Reynolds number fixed          Mach number fixed         
  
 xtrf =   1.000 (top)        1.000 (bottom)  
 Mach =   0.000     Re =     2.000 e 6     Ncrit =   9.000
  
  alpha     CL        CD       CDp       CM    Top_Xtr Bot_Xtr
 ------- -------- --------- --------- -------- ------- -------
   6.000   1.4249   0.00842   0.00448  -0.1452  0.5384  0.7862
   6.050   1.4292   0.00841   0.00448  -0.1450  0.5383  0.7863
   6.100   1.4338   0.00842   0.00450  -0.1449  0.5382  0.7864
   6.150   1.4382   0.00842   0.00450  -0.1448  0.5380  0.7865
   6.200   1.4427   0.00842   0.00451  -0.1447  0.5379  0.7866
   6.250   1.4472   0.00842   0.00452  -0.1446  0.5378  0.7868
   6.300   1.4518   0.00842   0.00452  -0.1445  0.5377  0.7869
   6.350   1.4564   0.00843   0.00453  -0.1444  0.5375  0.7870
   6.400   1.4610   0.00843   0.00454  -0.1443  0.5374  0.7871
   6.450   1.4656   0.00844   0.00455  -0.1442  0.5372  0.7872
   6.500   1.4703   0.00845   0.00456  -0.1441  0.5371  0.7873
   6.550   1.4748   0.00845   0.00457  -0.1440  0.5369  0.7875
   6.600   1.4793   0.00845   0.00458  -0.1439  0.5367  0.7876
   6.650   1.4839   0.00846   0.00459  -0.1438  0.5365  0.7877
   6.700   1.4885   0.00846   0.00459  -0.1437  0.5363  0.7878
   6.750   1.4931   0.00846   0.00460  -0.1437  0.5361  0.7879
   6.800   1.4978   0.00847   0.00461  -0.1436  0.5359  0.7881
   6.850   1.5023   0.00847   0.00462  -0.1435  0.5357  0.7882
   6.900   1.5070   0.00848   0.00463  -0.1434  0.5354  0.7883
   6.950   1.5116   0.00848   0.00463  -0.1433  0.5352  0.7884
   7.000   1.5162   0.00848   0.00464  -0.1433  0.5350  0.7885
   7.050   1.5207   0.00849   0.00465  -0.1432  0.5347  0.7887
   7.100   1.5252   0.00849   0.00466  -0.1431  0.5344  0.7888
   7.150   1.5296   0.00850   0.00467  -0.1429  0.5342  0.7889
   7.200   1.5341   0.00850   0.00468  -0.1428  0.5339  0.7890
   7.250   1.5385   0.00851   0.00468  -0.1427  0.5336  0.7891
   7.300   1.5429   0.00851   0.00469  -0.1426  0.5333  0.7893
   7.350   1.5474   0.00852   0.00470  -0.1425  0.5330  0.7894
   7.400   1.5518   0.00852   0.00471  -0.1424  0.5327  0.7895
   7.450   1.5562   0.00852   0.00472  -0.1423  0.5324  0.7896
   7.500   1.5608   0.00853   0.00473  -0.1422  0.5322  0.7898
   7.550   1.5652   0.00854   0.00475  -0.1421  0.5318  0.7899
   7.600   1.5696   0.00854   0.00476  -0.1420  0.5315  0.7900
   7.650   1.5741   0.00855   0.00477  -0.1418  0.5312  0.7902
   7.700   1.5786   0.00855   0.00478  -0.1418  0.5309  0.7903
   7.750   1.5830   0.00856   0.00479  -0.1416  0.5306  0.7904
   7.800   1.5875   0.00857   0.00480  -0.1415  0.5303  0.7905
   7.850   1.5919   0.00858   0.00481  -0.1414  0.5300  0.7907
   7.900   1.5963   0.00858   0.00482  -0.1413  0.5296  0.7908
   7.950   1.6007   0.00859   0.00484  -0.1412  0.5293  0.7909
   8.000   1.6049   0.00860   0.00484  -0.1411  0.5289  0.7911
   8.050   1.6093   0.00862   0.00486  -0.1410  0.5286  0.7912
   8.100   1.6134   0.00863   0.00487  -0.1408  0.5282  0.7913
   8.150   1.6173   0.00864   0.00489  -0.1406  0.5278  0.7915
   8.200   1.6210   0.00866   0.00490  -0.1404  0.5273  0.7916
   8.250   1.6246   0.00867   0.00492  -0.1401  0.5268  0.7918
   8.300   1.6282   0.00869   0.00494  -0.1398  0.5264  0.7919
   8.350   1.6317   0.00871   0.00496  -0.1396  0.5259  0.7921
   8.400   1.6355   0.00873   0.00499  -0.1393  0.5254  0.7922
   8.450   1.6388   0.00876   0.00501  -0.1390  0.5247  0.7924
   8.500   1.6426   0.00878   0.00504  -0.1388  0.5242  0.7925
   8.550   1.6462   0.00881   0.00506  -0.1386  0.5236  0.7927
   8.600   1.6502   0.00884   0.00509  -0.1384  0.5230  0.7928
   8.650   1.6541   0.00887   0.00513  -0.1382  0.5223  0.7930
   8.700   1.6582   0.00891   0.00517  -0.1381  0.5216  0.7931
   8.750   1.6626   0.00894   0.00520  -0.1380  0.5210  0.7932
   8.800   1.6670   0.00898   0.00524  -0.1379  0.5203  0.7934
   8.850   1.6714   0.00900   0.00527  -0.1378  0.5199  0.7935
   8.900   1.6757   0.00901   0.00529  -0.1377  0.5198  0.7937
   8.950   1.6801   0.00903   0.00531  -0.1376  0.5196  0.7938
   9.000   1.6844   0.00904   0.00533  -0.1375  0.5195  0.7940
   9.050   1.6888   0.00905   0.00535  -0.1374  0.5193  0.7941
   9.100   1.6933   0.00906   0.00538  -0.1374  0.5192  0.7942
   9.150   1.6976   0.00907   0.00540  -0.1373  0.5189  0.7944
   9.200   1.7020   0.00909   0.00542  -0.1372  0.5187  0.7945
   9.250   1.7064   0.00910   0.00544  -0.1371  0.5184  0.7947
   9.300   1.7109   0.00912   0.00547  -0.1370  0.5181  0.7948
   9.350   1.7153   0.00914   0.00549  -0.1370  0.5179  0.7950
   9.400   1.7197   0.00915   0.00552  -0.1369  0.5175  0.7951
   9.450   1.7241   0.00917   0.00554  -0.1368  0.5171  0.7953
   9.500   1.7285   0.00918   0.00557  -0.1367  0.5168  0.7954
   9.550   1.7329   0.00920   0.00559  -0.1366  0.5164  0.7955
   9.600   1.7371   0.00922   0.00562  -0.1365  0.5160  0.7957
   9.650   1.7413   0.00924   0.00564  -0.1364  0.5155  0.7958
   9.700   1.7454   0.00926   0.00567  -0.1363  0.5151  0.7960
   9.750   1.7494   0.00928   0.00570  -0.1361  0.5145  0.7961
   9.800   1.7534   0.00930   0.00573  -0.1360  0.5141  0.7963
   9.850   1.7573   0.00933   0.00576  -0.1358  0.5135  0.7964
   9.900   1.7611   0.00935   0.00579  -0.1356  0.5127  0.7966
   9.950   1.7649   0.00938   0.00582  -0.1355  0.5122  0.7967
  10.000   1.7685   0.00940   0.00585  -0.1352  0.5115  0.7969
  10.050   1.7719   0.00943   0.00588  -0.1350  0.5106  0.7970
  10.100   1.7753   0.00946   0.00592  -0.1347  0.5097  0.7972
  10.150   1.7786   0.00950   0.00595  -0.1344  0.5089  0.7973
  10.200   1.7817   0.00954   0.00599  -0.1341  0.5081  0.7975
  10.250   1.7843   0.00958   0.00604  -0.1337  0.5071  0.7976
  10.300   1.7867   0.00963   0.00608  -0.1333  0.5060  0.7978
  10.350   1.7887   0.00969   0.00614  -0.1328  0.5051  0.7979
  10.400   1.7902   0.00976   0.00621  -0.1322  0.5041  0.7981
  10.450   1.7906   0.00985   0.00630  -0.1314  0.5027  0.7982
  10.500   1.7914   0.00994   0.00638  -0.1307  0.5015  0.7984
  10.550   1.7923   0.01003   0.00647  -0.1300  0.5002  0.7985
  10.600   1.7961   0.01006   0.00652  -0.1298  0.4996  0.7987
  10.650   1.8003   0.01010   0.00657  -0.1298  0.4991  0.7988
  10.700   1.8044   0.01013   0.00661  -0.1297  0.4985  0.7989
  10.750   1.8083   0.01017   0.00666  -0.1295  0.4977  0.7990
  10.800   1.8120   0.01021   0.00671  -0.1294  0.4970  0.7991
  10.850   1.8152   0.01026   0.00677  -0.1291  0.4957  0.7992
  10.900   1.8181   0.01032   0.00683  -0.1288  0.4948  0.7993
  10.950   1.8205   0.01038   0.00690  -0.1284  0.4936  0.7994
  11.000   1.8225   0.01046   0.00698  -0.1279  0.4921  0.7996
  11.050   1.8239   0.01055   0.00707  -0.1274  0.4904  0.7997
  11.100   1.8250   0.01065   0.00716  -0.1268  0.4889  0.7998
  11.150   1.8252   0.01077   0.00728  -0.1260  0.4869  0.7999
  11.250   1.8208   0.01113   0.00763  -0.1237  0.4829  0.8006
  11.300   1.8182   0.01133   0.00783  -0.1225  0.4808  0.8012
  11.350   1.8190   0.01146   0.00795  -0.1219  0.4793  0.8017
  11.400   1.8203   0.01157   0.00807  -0.1213  0.4777  0.8022
  11.450   1.8205   0.01172   0.00822  -0.1206  0.4758  0.8027
  11.500   1.8181   0.01194   0.00844  -0.1195  0.4728  0.8033
  11.550   1.8182   0.01210   0.00860  -0.1188  0.4712  0.8038
  11.600   1.8122   0.01244   0.00894  -0.1172  0.4677  0.8044
  11.650   1.8079   0.01275   0.00924  -0.1158  0.4656  0.8051
  11.700   1.8000   0.01319   0.00967  -0.1139  0.4626  0.8057
  11.750   1.7921   0.01366   0.01014  -0.1121  0.4596  0.8064
  11.800   1.7909   0.01390   0.01039  -0.1113  0.4577  0.8068
  11.850   1.7858   0.01431   0.01079  -0.1100  0.4548  0.8074
  11.900   1.7813   0.01470   0.01119  -0.1087  0.4520  0.8079
  11.950   1.7769   0.01511   0.01160  -0.1075  0.4502  0.8084
  12.000   1.7621   0.01599   0.01247  -0.1050  0.4461  0.8091
