  
       XFOIL         Version 6.94
  
 Calculated polar for: 1080                                            
  
 1 1 Reynolds number fixed          Mach number fixed         
  
 xtrf =   1.000 (top)        1.000 (bottom)  
 Mach =   0.000     Re =     2.000 e 6     Ncrit =   9.000
  
  alpha     CL        CD       CDp       CM    Top_Xtr Bot_Xtr
 ------- -------- --------- --------- -------- ------- -------
   6.000   1.3719   0.00804   0.00411  -0.1353  0.5390  0.7868
   6.050   1.3768   0.00803   0.00412  -0.1353  0.5389  0.7869
   6.100   1.3817   0.00803   0.00412  -0.1352  0.5388  0.7870
   6.150   1.3864   0.00803   0.00412  -0.1352  0.5386  0.7872
   6.200   1.3910   0.00802   0.00412  -0.1350  0.5385  0.7873
   6.250   1.3955   0.00802   0.00412  -0.1349  0.5383  0.7874
   6.300   1.3999   0.00801   0.00412  -0.1348  0.5381  0.7875
   6.350   1.4042   0.00801   0.00412  -0.1346  0.5380  0.7877
   6.400   1.4086   0.00800   0.00412  -0.1345  0.5378  0.7878
   6.450   1.4129   0.00800   0.00412  -0.1343  0.5376  0.7879
   6.500   1.4172   0.00799   0.00412  -0.1341  0.5374  0.7880
   6.550   1.4216   0.00799   0.00412  -0.1340  0.5372  0.7882
   6.600   1.4260   0.00799   0.00413  -0.1338  0.5369  0.7883
   6.650   1.4304   0.00799   0.00413  -0.1337  0.5367  0.7884
   6.700   1.4349   0.00799   0.00413  -0.1336  0.5364  0.7886
   6.750   1.4394   0.00799   0.00414  -0.1334  0.5362  0.7887
   6.800   1.4440   0.00799   0.00414  -0.1333  0.5359  0.7888
   6.850   1.4485   0.00799   0.00415  -0.1332  0.5356  0.7889
   6.900   1.4531   0.00799   0.00416  -0.1331  0.5354  0.7891
   6.950   1.4577   0.00800   0.00416  -0.1330  0.5351  0.7892
   7.000   1.4623   0.00800   0.00417  -0.1329  0.5348  0.7893
   7.050   1.4670   0.00800   0.00418  -0.1328  0.5345  0.7895
   7.100   1.4716   0.00801   0.00419  -0.1327  0.5342  0.7896
   7.150   1.4762   0.00801   0.00420  -0.1327  0.5338  0.7897
   7.200   1.4809   0.00802   0.00421  -0.1326  0.5335  0.7898
   7.250   1.4856   0.00802   0.00421  -0.1325  0.5332  0.7900
   7.300   1.4902   0.00802   0.00423  -0.1324  0.5329  0.7901
   7.350   1.4949   0.00803   0.00424  -0.1323  0.5325  0.7902
   7.400   1.4995   0.00803   0.00425  -0.1323  0.5322  0.7904
   7.450   1.5041   0.00804   0.00426  -0.1322  0.5318  0.7905
   7.500   1.5086   0.00804   0.00427  -0.1320  0.5314  0.7906
   7.550   1.5130   0.00804   0.00427  -0.1319  0.5310  0.7908
   7.600   1.5175   0.00805   0.00429  -0.1318  0.5307  0.7909
   7.650   1.5218   0.00806   0.00429  -0.1317  0.5302  0.7910
   7.700   1.5261   0.00807   0.00431  -0.1315  0.5298  0.7912
   7.750   1.5305   0.00808   0.00432  -0.1314  0.5294  0.7913
   7.800   1.5348   0.00809   0.00433  -0.1312  0.5291  0.7915
   7.850   1.5389   0.00810   0.00434  -0.1311  0.5286  0.7916
   7.900   1.5431   0.00811   0.00436  -0.1309  0.5281  0.7918
   7.950   1.5472   0.00812   0.00437  -0.1307  0.5277  0.7919
   8.000   1.5512   0.00814   0.00439  -0.1305  0.5271  0.7921
   8.050   1.5553   0.00815   0.00440  -0.1303  0.5267  0.7922
   8.100   1.5590   0.00817   0.00442  -0.1301  0.5260  0.7924
   8.150   1.5631   0.00819   0.00444  -0.1299  0.5256  0.7925
   8.200   1.5669   0.00821   0.00446  -0.1296  0.5250  0.7927
   8.250   1.5707   0.00823   0.00448  -0.1294  0.5243  0.7928
   8.300   1.5747   0.00826   0.00451  -0.1292  0.5238  0.7930
   8.350   1.5785   0.00828   0.00454  -0.1290  0.5231  0.7932
   8.400   1.5822   0.00831   0.00457  -0.1287  0.5222  0.7933
   8.450   1.5861   0.00835   0.00460  -0.1285  0.5215  0.7935
   8.500   1.5901   0.00838   0.00464  -0.1283  0.5208  0.7936
   8.550   1.5943   0.00841   0.00467  -0.1282  0.5200  0.7938
   8.600   1.5986   0.00842   0.00469  -0.1281  0.5198  0.7939
   8.650   1.6029   0.00843   0.00471  -0.1280  0.5197  0.7941
   8.700   1.6074   0.00844   0.00473  -0.1278  0.5195  0.7942
   8.750   1.6118   0.00846   0.00475  -0.1277  0.5193  0.7944
   8.800   1.6162   0.00847   0.00477  -0.1277  0.5190  0.7945
   8.850   1.6207   0.00848   0.00479  -0.1276  0.5187  0.7947
   8.900   1.6252   0.00849   0.00481  -0.1275  0.5185  0.7948
   8.950   1.6297   0.00850   0.00483  -0.1274  0.5181  0.7950
   9.000   1.6343   0.00851   0.00485  -0.1273  0.5177  0.7951
   9.050   1.6388   0.00853   0.00487  -0.1273  0.5173  0.7952
   9.100   1.6434   0.00854   0.00489  -0.1272  0.5168  0.7954
   9.150   1.6480   0.00855   0.00492  -0.1271  0.5163  0.7955
   9.200   1.6526   0.00856   0.00494  -0.1271  0.5157  0.7957
   9.250   1.6572   0.00858   0.00496  -0.1270  0.5151  0.7958
   9.300   1.6617   0.00859   0.00498  -0.1269  0.5145  0.7960
   9.350   1.6661   0.00861   0.00500  -0.1268  0.5138  0.7961
   9.400   1.6705   0.00863   0.00502  -0.1267  0.5131  0.7963
   9.450   1.6746   0.00864   0.00504  -0.1266  0.5122  0.7964
   9.500   1.6788   0.00866   0.00507  -0.1265  0.5115  0.7966
   9.550   1.6824   0.00869   0.00509  -0.1262  0.5101  0.7967
   9.600   1.6862   0.00871   0.00512  -0.1260  0.5092  0.7969
   9.650   1.6896   0.00874   0.00514  -0.1257  0.5080  0.7970
   9.700   1.6930   0.00878   0.00518  -0.1254  0.5071  0.7972
   9.750   1.6958   0.00882   0.00521  -0.1250  0.5058  0.7973
   9.800   1.6985   0.00886   0.00525  -0.1246  0.5046  0.7975
   9.850   1.7008   0.00891   0.00530  -0.1241  0.5035  0.7976
   9.900   1.7024   0.00897   0.00536  -0.1235  0.5022  0.7978
   9.950   1.7038   0.00903   0.00542  -0.1229  0.5009  0.7980
  10.000   1.7061   0.00909   0.00548  -0.1224  0.4999  0.7981
  10.050   1.7104   0.00911   0.00551  -0.1223  0.4993  0.7982
  10.100   1.7146   0.00914   0.00554  -0.1222  0.4986  0.7984
  10.150   1.7187   0.00917   0.00558  -0.1220  0.4979  0.7985
  10.200   1.7225   0.00920   0.00562  -0.1218  0.4968  0.7986
  10.250   1.7260   0.00924   0.00566  -0.1216  0.4953  0.7987
  10.300   1.7290   0.00928   0.00571  -0.1213  0.4935  0.7989
  10.350   1.7321   0.00933   0.00576  -0.1209  0.4921  0.7990
  10.400   1.7334   0.00941   0.00584  -0.1203  0.4894  0.7991
  10.450   1.7354   0.00948   0.00591  -0.1198  0.4878  0.7992
  10.500   1.7329   0.00962   0.00603  -0.1184  0.4846  0.7994
  10.550   1.7320   0.00975   0.00615  -0.1174  0.4825  0.7995
  10.600   1.7305   0.00989   0.00628  -0.1163  0.4799  0.7997
  10.650   1.7326   0.00997   0.00636  -0.1158  0.4779  0.7998
  10.700   1.7341   0.01006   0.00645  -0.1152  0.4756  0.7999
  10.800   1.7337   0.01031   0.00669  -0.1135  0.4706  0.8006
  10.850   1.7303   0.01051   0.00688  -0.1121  0.4671  0.8012
  10.900   1.7277   0.01071   0.00707  -0.1109  0.4644  0.8018
  10.950   1.7212   0.01100   0.00735  -0.1090  0.4610  0.8025
  11.000   1.7203   0.01117   0.00751  -0.1081  0.4588  0.8031
  11.050   1.7208   0.01130   0.00765  -0.1074  0.4569  0.8036
  11.100   1.7195   0.01148   0.00783  -0.1064  0.4543  0.8041
  11.150   1.7151   0.01176   0.00811  -0.1049  0.4510  0.8048
  11.200   1.7126   0.01200   0.00834  -0.1038  0.4486  0.8053
  11.250   1.7056   0.01238   0.00872  -0.1020  0.4455  0.8060
  11.300   1.7003   0.01274   0.00906  -0.1005  0.4430  0.8066
  11.350   1.6927   0.01318   0.00950  -0.0987  0.4397  0.8073
  11.400   1.6915   0.01342   0.00975  -0.0978  0.4378  0.8077
  11.450   1.6872   0.01378   0.01010  -0.0966  0.4345  0.8082
  11.500   1.6830   0.01415   0.01047  -0.0953  0.4321  0.8087
  11.550   1.6755   0.01466   0.01099  -0.0937  0.4287  0.8093
  11.600   1.6715   0.01506   0.01138  -0.0925  0.4271  0.8098
  11.650   1.6588   0.01586   0.01218  -0.0903  0.4234  0.8104
  11.700   1.6506   0.01649   0.01281  -0.0887  0.4207  0.8110
  11.750   1.6461   0.01697   0.01329  -0.0876  0.4187  0.8114
  11.800   1.6436   0.01736   0.01369  -0.0867  0.4168  0.8119
  11.850   1.6376   0.01793   0.01426  -0.0855  0.4141  0.8124
  11.900   1.6298   0.01861   0.01494  -0.0841  0.4110  0.8129
  11.950   1.6191   0.01946   0.01579  -0.0823  0.4081  0.8134
  12.000   1.6129   0.02007   0.01640  -0.0811  0.4062  0.8139
