  
       XFOIL         Version 6.94
  
 Calculated polar for: 1080                                            
  
 1 1 Reynolds number fixed          Mach number fixed         
  
 xtrf =   1.000 (top)        1.000 (bottom)  
 Mach =   0.000     Re =     2.000 e 6     Ncrit =   9.000
  
  alpha     CL        CD       CDp       CM    Top_Xtr Bot_Xtr
 ------- -------- --------- --------- -------- ------- -------
   6.000   1.3541   0.00816   0.00423  -0.1314  0.5390  0.7833
   6.050   1.3585   0.00815   0.00423  -0.1313  0.5389  0.7834
   6.100   1.3630   0.00815   0.00423  -0.1311  0.5387  0.7836
   6.150   1.3673   0.00815   0.00423  -0.1310  0.5386  0.7838
   6.200   1.3717   0.00814   0.00423  -0.1308  0.5385  0.7840
   6.250   1.3762   0.00815   0.00424  -0.1307  0.5383  0.7841
   6.300   1.3807   0.00814   0.00424  -0.1306  0.5382  0.7843
   6.350   1.3852   0.00814   0.00425  -0.1305  0.5380  0.7844
   6.400   1.3896   0.00814   0.00425  -0.1303  0.5378  0.7846
   6.450   1.3942   0.00814   0.00426  -0.1302  0.5377  0.7847
   6.500   1.3988   0.00815   0.00427  -0.1301  0.5375  0.7849
   6.550   1.4033   0.00815   0.00427  -0.1300  0.5373  0.7850
   6.600   1.4079   0.00815   0.00428  -0.1299  0.5371  0.7852
   6.650   1.4125   0.00815   0.00429  -0.1298  0.5369  0.7853
   6.700   1.4170   0.00815   0.00429  -0.1297  0.5366  0.7855
   6.750   1.4216   0.00816   0.00430  -0.1296  0.5364  0.7856
   6.800   1.4262   0.00816   0.00430  -0.1295  0.5361  0.7858
   6.850   1.4308   0.00816   0.00431  -0.1294  0.5359  0.7859
   6.900   1.4353   0.00817   0.00432  -0.1293  0.5356  0.7861
   6.950   1.4398   0.00817   0.00433  -0.1292  0.5353  0.7862
   7.000   1.4443   0.00817   0.00433  -0.1291  0.5351  0.7864
   7.050   1.4487   0.00818   0.00434  -0.1290  0.5348  0.7865
   7.100   1.4533   0.00818   0.00436  -0.1289  0.5345  0.7867
   7.150   1.4577   0.00819   0.00436  -0.1287  0.5342  0.7868
   7.200   1.4622   0.00819   0.00437  -0.1286  0.5339  0.7869
   7.250   1.4666   0.00820   0.00438  -0.1285  0.5336  0.7871
   7.300   1.4712   0.00821   0.00440  -0.1284  0.5333  0.7872
   7.350   1.4756   0.00821   0.00441  -0.1283  0.5330  0.7874
   7.400   1.4802   0.00822   0.00442  -0.1282  0.5327  0.7875
   7.450   1.4847   0.00822   0.00443  -0.1281  0.5323  0.7877
   7.500   1.4892   0.00823   0.00444  -0.1280  0.5320  0.7878
   7.550   1.4938   0.00824   0.00446  -0.1279  0.5317  0.7880
   7.600   1.4982   0.00824   0.00447  -0.1278  0.5313  0.7881
   7.650   1.5027   0.00825   0.00448  -0.1277  0.5310  0.7882
   7.700   1.5072   0.00825   0.00449  -0.1276  0.5306  0.7884
   7.750   1.5116   0.00826   0.00450  -0.1275  0.5302  0.7885
   7.800   1.5160   0.00827   0.00451  -0.1274  0.5298  0.7887
   7.850   1.5203   0.00828   0.00452  -0.1272  0.5294  0.7888
   7.900   1.5246   0.00829   0.00453  -0.1271  0.5289  0.7890
   7.950   1.5285   0.00830   0.00454  -0.1269  0.5285  0.7891
   8.000   1.5327   0.00831   0.00456  -0.1267  0.5281  0.7893
   8.050   1.5365   0.00833   0.00458  -0.1265  0.5276  0.7894
   8.100   1.5404   0.00835   0.00459  -0.1263  0.5272  0.7896
   8.150   1.5440   0.00836   0.00461  -0.1260  0.5267  0.7897
   8.200   1.5474   0.00838   0.00463  -0.1257  0.5261  0.7899
   8.250   1.5511   0.00840   0.00465  -0.1254  0.5256  0.7900
   8.300   1.5546   0.00843   0.00468  -0.1252  0.5250  0.7902
   8.350   1.5583   0.00845   0.00470  -0.1249  0.5245  0.7904
   8.400   1.5619   0.00848   0.00473  -0.1246  0.5238  0.7905
   8.450   1.5656   0.00851   0.00476  -0.1244  0.5231  0.7907
   8.500   1.5695   0.00854   0.00480  -0.1242  0.5225  0.7908
   8.550   1.5734   0.00857   0.00483  -0.1240  0.5217  0.7910
   8.600   1.5776   0.00860   0.00486  -0.1239  0.5210  0.7911
   8.650   1.5819   0.00864   0.00489  -0.1238  0.5203  0.7913
   8.700   1.5863   0.00866   0.00492  -0.1237  0.5199  0.7914
   8.750   1.5907   0.00867   0.00494  -0.1236  0.5197  0.7916
   8.800   1.5953   0.00868   0.00496  -0.1235  0.5196  0.7917
   8.850   1.5997   0.00869   0.00498  -0.1234  0.5194  0.7919
   8.900   1.6042   0.00870   0.00500  -0.1234  0.5192  0.7920
   8.950   1.6087   0.00872   0.00502  -0.1233  0.5189  0.7922
   9.000   1.6133   0.00873   0.00505  -0.1232  0.5187  0.7923
   9.050   1.6178   0.00874   0.00507  -0.1232  0.5184  0.7925
   9.100   1.6223   0.00876   0.00509  -0.1231  0.5181  0.7926
   9.150   1.6268   0.00877   0.00512  -0.1230  0.5177  0.7928
   9.200   1.6314   0.00879   0.00514  -0.1230  0.5174  0.7929
   9.250   1.6359   0.00880   0.00516  -0.1229  0.5169  0.7931
   9.300   1.6404   0.00882   0.00519  -0.1228  0.5165  0.7933
   9.350   1.6449   0.00883   0.00521  -0.1228  0.5160  0.7934
   9.400   1.6493   0.00885   0.00523  -0.1227  0.5154  0.7936
   9.450   1.6535   0.00887   0.00526  -0.1226  0.5148  0.7937
   9.500   1.6577   0.00889   0.00529  -0.1224  0.5143  0.7939
   9.550   1.6617   0.00891   0.00531  -0.1223  0.5136  0.7941
   9.600   1.6655   0.00893   0.00534  -0.1221  0.5129  0.7942
   9.650   1.6691   0.00896   0.00537  -0.1218  0.5120  0.7944
   9.700   1.6727   0.00898   0.00540  -0.1216  0.5112  0.7946
   9.750   1.6762   0.00901   0.00543  -0.1213  0.5105  0.7947
   9.800   1.6797   0.00905   0.00547  -0.1211  0.5097  0.7949
   9.850   1.6827   0.00908   0.00550  -0.1207  0.5086  0.7951
   9.900   1.6856   0.00912   0.00554  -0.1204  0.5077  0.7953
   9.950   1.6885   0.00916   0.00558  -0.1200  0.5068  0.7954
  10.000   1.6903   0.00922   0.00563  -0.1194  0.5053  0.7956
  10.050   1.6926   0.00927   0.00568  -0.1190  0.5044  0.7958
  10.100   1.6930   0.00935   0.00576  -0.1182  0.5027  0.7960
  10.150   1.6938   0.00943   0.00584  -0.1174  0.5014  0.7962
  10.200   1.6944   0.00952   0.00592  -0.1167  0.5000  0.7964
  10.250   1.6986   0.00955   0.00596  -0.1166  0.4995  0.7966
  10.300   1.7028   0.00958   0.00600  -0.1165  0.4988  0.7967
  10.350   1.7067   0.00961   0.00604  -0.1163  0.4982  0.7969
  10.400   1.7106   0.00965   0.00609  -0.1162  0.4974  0.7970
  10.450   1.7142   0.00969   0.00613  -0.1160  0.4964  0.7972
  10.500   1.7175   0.00974   0.00620  -0.1157  0.4953  0.7973
  10.550   1.7208   0.00979   0.00625  -0.1155  0.4942  0.7975
  10.600   1.7233   0.00985   0.00631  -0.1151  0.4925  0.7977
  10.650   1.7249   0.00993   0.00639  -0.1145  0.4907  0.7978
  10.700   1.7243   0.01005   0.00651  -0.1136  0.4882  0.7980
  10.750   1.7248   0.01016   0.00661  -0.1128  0.4865  0.7982
  10.800   1.7227   0.01032   0.00676  -0.1116  0.4839  0.7984
  10.850   1.7216   0.01047   0.00691  -0.1106  0.4820  0.7986
  10.900   1.7188   0.01066   0.00709  -0.1094  0.4795  0.7988
  10.950   1.7198   0.01078   0.00720  -0.1088  0.4774  0.7989
  11.000   1.7216   0.01087   0.00730  -0.1083  0.4760  0.7991
  11.050   1.7224   0.01100   0.00742  -0.1076  0.4740  0.7992
  11.100   1.7210   0.01118   0.00760  -0.1066  0.4712  0.7993
  11.150   1.7147   0.01150   0.00790  -0.1048  0.4673  0.7995
  11.200   1.7097   0.01180   0.00819  -0.1033  0.4643  0.7997
  11.250   1.7019   0.01220   0.00858  -0.1014  0.4611  0.7999
  11.300   1.7007   0.01241   0.00879  -0.1005  0.4595  0.8000
  11.350   1.6991   0.01264   0.00902  -0.0995  0.4568  0.8005
  11.400   1.6964   0.01291   0.00929  -0.0985  0.4545  0.8011
  11.450   1.6920   0.01324   0.00962  -0.0971  0.4514  0.8018
  11.500   1.6886   0.01356   0.00993  -0.0960  0.4493  0.8024
  11.550   1.6782   0.01415   0.01051  -0.0939  0.4456  0.8032
  11.600   1.6636   0.01495   0.01130  -0.0912  0.4414  0.8041
  11.650   1.6587   0.01539   0.01174  -0.0900  0.4390  0.8047
  11.700   1.6555   0.01577   0.01213  -0.0890  0.4369  0.8053
  11.750   1.6543   0.01606   0.01243  -0.0883  0.4354  0.8058
  11.800   1.6478   0.01660   0.01297  -0.0869  0.4326  0.8064
  11.850   1.6387   0.01728   0.01365  -0.0852  0.4292  0.8070
  11.900   1.6343   0.01777   0.01414  -0.0841  0.4279  0.8075
  11.950   1.6121   0.01916   0.01552  -0.0810  0.4229  0.8083
  12.000   1.6048   0.01980   0.01616  -0.0796  0.4209  0.8089
