  
       XFOIL         Version 6.94
  
 Calculated polar for: 1080                                            
  
 1 1 Reynolds number fixed          Mach number fixed         
  
 xtrf =   1.000 (top)        1.000 (bottom)  
 Mach =   0.000     Re =     2.000 e 6     Ncrit =   9.000
  
  alpha     CL        CD       CDp       CM    Top_Xtr Bot_Xtr
 ------- -------- --------- --------- -------- ------- -------
   6.000   1.4041   0.00821   0.00429  -0.1415  0.5388  0.7872
   6.050   1.4090   0.00821   0.00429  -0.1415  0.5387  0.7873
   6.100   1.4136   0.00821   0.00429  -0.1414  0.5386  0.7874
   6.150   1.4181   0.00820   0.00429  -0.1413  0.5384  0.7875
   6.200   1.4227   0.00820   0.00430  -0.1411  0.5383  0.7877
   6.250   1.4270   0.00820   0.00429  -0.1410  0.5381  0.7878
   6.300   1.4314   0.00819   0.00430  -0.1408  0.5380  0.7879
   6.350   1.4358   0.00819   0.00430  -0.1407  0.5378  0.7880
   6.400   1.4401   0.00819   0.00430  -0.1405  0.5377  0.7882
   6.450   1.4444   0.00818   0.00430  -0.1404  0.5375  0.7883
   6.500   1.4487   0.00818   0.00430  -0.1402  0.5373  0.7884
   6.550   1.4532   0.00818   0.00431  -0.1401  0.5371  0.7885
   6.600   1.4577   0.00818   0.00431  -0.1399  0.5369  0.7886
   6.650   1.4621   0.00818   0.00431  -0.1398  0.5366  0.7888
   6.700   1.4665   0.00818   0.00432  -0.1397  0.5364  0.7889
   6.750   1.4711   0.00818   0.00432  -0.1396  0.5362  0.7890
   6.800   1.4757   0.00818   0.00433  -0.1395  0.5360  0.7891
   6.850   1.4802   0.00818   0.00434  -0.1394  0.5357  0.7892
   6.900   1.4847   0.00819   0.00434  -0.1393  0.5354  0.7894
   6.950   1.4893   0.00819   0.00435  -0.1392  0.5351  0.7895
   7.000   1.4939   0.00819   0.00436  -0.1391  0.5349  0.7896
   7.050   1.4986   0.00820   0.00437  -0.1390  0.5346  0.7897
   7.100   1.5032   0.00820   0.00437  -0.1389  0.5343  0.7899
   7.150   1.5078   0.00820   0.00438  -0.1388  0.5340  0.7900
   7.200   1.5125   0.00821   0.00439  -0.1387  0.5337  0.7901
   7.250   1.5171   0.00821   0.00440  -0.1387  0.5334  0.7902
   7.300   1.5217   0.00821   0.00440  -0.1386  0.5330  0.7904
   7.350   1.5264   0.00822   0.00441  -0.1385  0.5328  0.7905
   7.400   1.5309   0.00822   0.00443  -0.1384  0.5325  0.7906
   7.450   1.5355   0.00823   0.00444  -0.1383  0.5321  0.7907
   7.500   1.5399   0.00824   0.00445  -0.1382  0.5318  0.7909
   7.550   1.5444   0.00824   0.00446  -0.1381  0.5315  0.7910
   7.600   1.5489   0.00825   0.00447  -0.1380  0.5312  0.7911
   7.650   1.5532   0.00825   0.00448  -0.1378  0.5308  0.7913
   7.700   1.5577   0.00826   0.00450  -0.1377  0.5305  0.7914
   7.750   1.5619   0.00827   0.00450  -0.1376  0.5301  0.7915
   7.800   1.5662   0.00827   0.00451  -0.1374  0.5297  0.7917
   7.850   1.5704   0.00828   0.00452  -0.1373  0.5292  0.7918
   7.900   1.5746   0.00829   0.00453  -0.1371  0.5288  0.7920
   7.950   1.5788   0.00830   0.00455  -0.1370  0.5284  0.7921
   8.000   1.5829   0.00831   0.00456  -0.1368  0.5279  0.7922
   8.050   1.5872   0.00833   0.00458  -0.1366  0.5276  0.7924
   8.100   1.5912   0.00834   0.00459  -0.1364  0.5270  0.7925
   8.150   1.5952   0.00836   0.00461  -0.1362  0.5265  0.7927
   8.200   1.5992   0.00837   0.00463  -0.1360  0.5260  0.7928
   8.250   1.6030   0.00839   0.00465  -0.1358  0.5255  0.7930
   8.300   1.6069   0.00842   0.00467  -0.1356  0.5249  0.7931
   8.350   1.6105   0.00844   0.00469  -0.1353  0.5243  0.7933
   8.400   1.6144   0.00846   0.00472  -0.1351  0.5238  0.7934
   8.450   1.6179   0.00849   0.00475  -0.1348  0.5230  0.7936
   8.500   1.6218   0.00852   0.00478  -0.1346  0.5224  0.7937
   8.550   1.6255   0.00856   0.00482  -0.1344  0.5216  0.7939
   8.600   1.6296   0.00859   0.00485  -0.1343  0.5210  0.7940
   8.650   1.6337   0.00863   0.00489  -0.1341  0.5202  0.7942
   8.700   1.6380   0.00865   0.00491  -0.1340  0.5199  0.7943
   8.750   1.6423   0.00866   0.00493  -0.1339  0.5197  0.7945
   8.800   1.6467   0.00867   0.00495  -0.1338  0.5196  0.7946
   8.850   1.6510   0.00868   0.00497  -0.1337  0.5194  0.7948
   8.900   1.6555   0.00869   0.00499  -0.1336  0.5192  0.7949
   8.950   1.6599   0.00870   0.00501  -0.1335  0.5190  0.7951
   9.000   1.6644   0.00871   0.00503  -0.1334  0.5187  0.7952
   9.050   1.6689   0.00873   0.00506  -0.1333  0.5185  0.7953
   9.100   1.6734   0.00874   0.00508  -0.1332  0.5181  0.7955
   9.150   1.6780   0.00875   0.00510  -0.1332  0.5178  0.7956
   9.200   1.6825   0.00877   0.00512  -0.1331  0.5175  0.7958
   9.250   1.6870   0.00878   0.00514  -0.1331  0.5171  0.7959
   9.300   1.6916   0.00879   0.00517  -0.1330  0.5166  0.7960
   9.350   1.6961   0.00881   0.00519  -0.1329  0.5162  0.7962
   9.400   1.7007   0.00882   0.00521  -0.1329  0.5157  0.7963
   9.450   1.7052   0.00884   0.00523  -0.1328  0.5151  0.7965
   9.500   1.7097   0.00885   0.00525  -0.1327  0.5144  0.7966
   9.550   1.7142   0.00887   0.00527  -0.1327  0.5137  0.7967
   9.600   1.7185   0.00888   0.00530  -0.1326  0.5130  0.7969
   9.650   1.7226   0.00890   0.00532  -0.1324  0.5122  0.7970
   9.700   1.7267   0.00892   0.00535  -0.1323  0.5115  0.7971
   9.750   1.7306   0.00895   0.00537  -0.1321  0.5105  0.7973
   9.800   1.7345   0.00897   0.00540  -0.1319  0.5097  0.7974
   9.850   1.7379   0.00900   0.00543  -0.1316  0.5087  0.7976
   9.900   1.7411   0.00904   0.00546  -0.1313  0.5076  0.7977
   9.950   1.7435   0.00908   0.00550  -0.1309  0.5065  0.7979
  10.000   1.7456   0.00913   0.00555  -0.1303  0.5054  0.7980
  10.050   1.7480   0.00918   0.00560  -0.1299  0.5045  0.7982
  10.100   1.7488   0.00925   0.00566  -0.1291  0.5030  0.7983
  10.150   1.7504   0.00931   0.00572  -0.1285  0.5017  0.7985
  10.200   1.7520   0.00938   0.00579  -0.1279  0.5005  0.7986
  10.250   1.7555   0.00942   0.00583  -0.1277  0.4996  0.7987
  10.300   1.7598   0.00944   0.00587  -0.1276  0.4990  0.7988
  10.350   1.7641   0.00947   0.00591  -0.1275  0.4984  0.7989
  10.400   1.7681   0.00950   0.00595  -0.1274  0.4977  0.7991
  10.450   1.7721   0.00954   0.00600  -0.1272  0.4968  0.7992
  10.500   1.7757   0.00958   0.00604  -0.1270  0.4957  0.7993
  10.550   1.7788   0.00962   0.00609  -0.1267  0.4944  0.7994
  10.600   1.7811   0.00968   0.00616  -0.1263  0.4927  0.7995
  10.650   1.7830   0.00975   0.00622  -0.1258  0.4910  0.7996
  10.700   1.7839   0.00984   0.00631  -0.1251  0.4889  0.7997
  10.750   1.7830   0.00997   0.00642  -0.1241  0.4861  0.7998
  10.800   1.7822   0.01010   0.00654  -0.1231  0.4838  0.8000
  10.850   1.7817   0.01023   0.00666  -0.1221  0.4820  0.8004
  10.900   1.7798   0.01038   0.00681  -0.1210  0.4797  0.8009
  10.950   1.7808   0.01048   0.00691  -0.1203  0.4774  0.8014
  11.000   1.7816   0.01059   0.00702  -0.1197  0.4752  0.8019
  11.050   1.7820   0.01071   0.00714  -0.1189  0.4728  0.8024
  11.100   1.7816   0.01085   0.00729  -0.1181  0.4705  0.8029
  11.150   1.7777   0.01108   0.00751  -0.1166  0.4674  0.8036
  11.200   1.7709   0.01141   0.00781  -0.1147  0.4637  0.8043
  11.250   1.7675   0.01165   0.00805  -0.1134  0.4615  0.8049
  11.300   1.7646   0.01189   0.00829  -0.1122  0.4591  0.8054
  11.350   1.7636   0.01208   0.00849  -0.1113  0.4568  0.8059
  11.400   1.7611   0.01233   0.00873  -0.1102  0.4540  0.8065
  11.450   1.7571   0.01263   0.00903  -0.1089  0.4513  0.8070
  11.500   1.7527   0.01296   0.00935  -0.1076  0.4485  0.8075
  11.550   1.7453   0.01340   0.00979  -0.1058  0.4458  0.8081
  11.600   1.7369   0.01391   0.01029  -0.1039  0.4428  0.8087
  11.650   1.7282   0.01446   0.01084  -0.1021  0.4398  0.8093
  11.700   1.7271   0.01473   0.01112  -0.1013  0.4380  0.8097
  11.750   1.7239   0.01509   0.01149  -0.1003  0.4360  0.8102
  11.800   1.7196   0.01551   0.01191  -0.0991  0.4335  0.8106
  11.850   1.7132   0.01605   0.01244  -0.0977  0.4309  0.8112
  11.900   1.7051   0.01668   0.01307  -0.0961  0.4281  0.8117
  11.950   1.6902   0.01768   0.01406  -0.0938  0.4245  0.8123
  12.000   1.6787   0.01856   0.01495  -0.0919  0.4218  0.8129
