  
       XFOIL         Version 6.94
  
 Calculated polar for: 1080                                            
  
 1 1 Reynolds number fixed          Mach number fixed         
  
 xtrf =   1.000 (top)        1.000 (bottom)  
 Mach =   0.000     Re =     2.000 e 6     Ncrit =   9.000
  
  alpha     CL        CD       CDp       CM    Top_Xtr Bot_Xtr
 ------- -------- --------- --------- -------- ------- -------
   6.000   1.2937   0.00822   0.00430  -0.1192  0.5391  0.7788
   6.050   1.2983   0.00822   0.00431  -0.1191  0.5390  0.7789
   6.100   1.3029   0.00823   0.00432  -0.1190  0.5389  0.7789
   6.150   1.3073   0.00823   0.00432  -0.1189  0.5387  0.7790
   6.200   1.3117   0.00823   0.00433  -0.1187  0.5386  0.7790
   6.250   1.3164   0.00824   0.00434  -0.1186  0.5385  0.7791
   6.300   1.3206   0.00824   0.00435  -0.1185  0.5384  0.7791
   6.350   1.3249   0.00825   0.00435  -0.1183  0.5382  0.7792
   6.400   1.3293   0.00825   0.00436  -0.1182  0.5380  0.7792
   6.450   1.3338   0.00826   0.00437  -0.1181  0.5379  0.7793
   6.500   1.3381   0.00826   0.00438  -0.1179  0.5377  0.7793
   6.550   1.3426   0.00827   0.00439  -0.1178  0.5375  0.7794
   6.600   1.3471   0.00827   0.00440  -0.1177  0.5373  0.7794
   6.650   1.3516   0.00828   0.00441  -0.1176  0.5371  0.7795
   6.700   1.3561   0.00829   0.00442  -0.1175  0.5369  0.7795
   6.750   1.3605   0.00829   0.00443  -0.1173  0.5367  0.7796
   6.800   1.3650   0.00829   0.00444  -0.1172  0.5365  0.7796
   6.850   1.3696   0.00830   0.00445  -0.1171  0.5362  0.7797
   6.900   1.3741   0.00831   0.00446  -0.1170  0.5360  0.7797
   6.950   1.3786   0.00831   0.00446  -0.1169  0.5357  0.7798
   7.000   1.3832   0.00832   0.00447  -0.1168  0.5355  0.7798
   7.050   1.3877   0.00832   0.00448  -0.1167  0.5351  0.7798
   7.100   1.3922   0.00833   0.00449  -0.1166  0.5349  0.7799
   7.150   1.3966   0.00834   0.00450  -0.1165  0.5346  0.7799
   7.200   1.4010   0.00835   0.00452  -0.1164  0.5343  0.7800
   7.250   1.4052   0.00835   0.00453  -0.1162  0.5340  0.7800
   7.300   1.4096   0.00836   0.00453  -0.1161  0.5337  0.7802
   7.350   1.4139   0.00836   0.00455  -0.1160  0.5334  0.7804
   7.400   1.4182   0.00837   0.00456  -0.1158  0.5331  0.7806
   7.450   1.4225   0.00837   0.00457  -0.1157  0.5327  0.7809
   7.500   1.4270   0.00838   0.00458  -0.1156  0.5325  0.7811
   7.550   1.4312   0.00838   0.00459  -0.1155  0.5321  0.7813
   7.600   1.4356   0.00839   0.00460  -0.1154  0.5318  0.7816
   7.650   1.4400   0.00840   0.00461  -0.1152  0.5315  0.7818
   7.700   1.4444   0.00840   0.00462  -0.1151  0.5311  0.7821
   7.750   1.4488   0.00841   0.00463  -0.1150  0.5308  0.7823
   7.800   1.4531   0.00841   0.00464  -0.1149  0.5303  0.7826
   7.850   1.4574   0.00842   0.00465  -0.1147  0.5300  0.7828
   7.900   1.4617   0.00843   0.00466  -0.1146  0.5296  0.7831
   7.950   1.4659   0.00844   0.00467  -0.1145  0.5292  0.7833
   8.000   1.4700   0.00845   0.00468  -0.1143  0.5287  0.7836
   8.050   1.4741   0.00846   0.00470  -0.1141  0.5282  0.7838
   8.100   1.4778   0.00847   0.00471  -0.1139  0.5276  0.7841
   8.150   1.4820   0.00849   0.00473  -0.1138  0.5273  0.7844
   8.200   1.4860   0.00851   0.00475  -0.1136  0.5268  0.7846
   8.250   1.4896   0.00853   0.00477  -0.1133  0.5262  0.7848
   8.300   1.4934   0.00855   0.00479  -0.1131  0.5257  0.7851
   8.350   1.4971   0.00858   0.00482  -0.1129  0.5252  0.7853
   8.400   1.5006   0.00860   0.00484  -0.1126  0.5245  0.7855
   8.450   1.5041   0.00863   0.00487  -0.1123  0.5239  0.7857
   8.500   1.5075   0.00866   0.00491  -0.1120  0.5232  0.7859
   8.550   1.5107   0.00870   0.00495  -0.1117  0.5224  0.7861
   8.600   1.5144   0.00874   0.00498  -0.1115  0.5218  0.7864
   8.650   1.5181   0.00877   0.00502  -0.1113  0.5211  0.7865
   8.700   1.5221   0.00881   0.00506  -0.1111  0.5204  0.7867
   8.750   1.5259   0.00884   0.00509  -0.1109  0.5199  0.7869
   8.800   1.5301   0.00885   0.00512  -0.1108  0.5198  0.7871
   8.850   1.5343   0.00887   0.00514  -0.1107  0.5196  0.7873
   8.900   1.5382   0.00889   0.00517  -0.1105  0.5194  0.7875
   8.950   1.5424   0.00890   0.00519  -0.1104  0.5192  0.7876
   9.000   1.5466   0.00892   0.00522  -0.1102  0.5189  0.7878
   9.050   1.5508   0.00894   0.00525  -0.1101  0.5187  0.7880
   9.100   1.5551   0.00896   0.00527  -0.1100  0.5184  0.7882
   9.150   1.5593   0.00897   0.00530  -0.1099  0.5181  0.7883
   9.200   1.5636   0.00899   0.00533  -0.1098  0.5178  0.7885
   9.250   1.5679   0.00901   0.00536  -0.1097  0.5174  0.7887
   9.300   1.5722   0.00903   0.00538  -0.1096  0.5170  0.7888
   9.350   1.5764   0.00905   0.00541  -0.1095  0.5166  0.7890
   9.400   1.5806   0.00908   0.00544  -0.1094  0.5162  0.7892
   9.450   1.5847   0.00910   0.00547  -0.1092  0.5158  0.7894
   9.500   1.5886   0.00912   0.00550  -0.1091  0.5152  0.7895
   9.550   1.5925   0.00915   0.00554  -0.1089  0.5145  0.7897
   9.600   1.5964   0.00917   0.00557  -0.1087  0.5140  0.7899
   9.650   1.5999   0.00920   0.00560  -0.1085  0.5131  0.7901
   9.700   1.6034   0.00923   0.00564  -0.1082  0.5123  0.7903
   9.750   1.6071   0.00927   0.00568  -0.1080  0.5118  0.7904
   9.800   1.6105   0.00930   0.00571  -0.1078  0.5110  0.7906
   9.850   1.6135   0.00934   0.00575  -0.1075  0.5099  0.7908
   9.900   1.6164   0.00938   0.00580  -0.1071  0.5090  0.7910
   9.950   1.6194   0.00943   0.00584  -0.1068  0.5081  0.7912
  10.000   1.6217   0.00948   0.00590  -0.1063  0.5071  0.7914
  10.050   1.6237   0.00955   0.00596  -0.1058  0.5061  0.7916
  10.100   1.6243   0.00963   0.00604  -0.1051  0.5048  0.7918
  10.150   1.6254   0.00971   0.00612  -0.1044  0.5038  0.7920
  10.200   1.6254   0.00982   0.00622  -0.1036  0.5023  0.7923
  10.250   1.6259   0.00992   0.00632  -0.1029  0.5009  0.7925
  10.300   1.6278   0.01000   0.00640  -0.1024  0.4999  0.7927
  10.350   1.6320   0.01003   0.00644  -0.1023  0.4994  0.7929
  10.400   1.6358   0.01007   0.00649  -0.1021  0.4988  0.7931
  10.450   1.6393   0.01012   0.00654  -0.1019  0.4979  0.7932
  10.500   1.6428   0.01017   0.00660  -0.1017  0.4976  0.7934
  10.550   1.6455   0.01023   0.00667  -0.1014  0.4961  0.7936
  10.600   1.6484   0.01029   0.00673  -0.1011  0.4952  0.7938
  10.650   1.6502   0.01037   0.00683  -0.1006  0.4932  0.7940
  10.700   1.6525   0.01045   0.00691  -0.1002  0.4920  0.7942
  10.750   1.6534   0.01056   0.00702  -0.0996  0.4899  0.7945
  10.800   1.6534   0.01069   0.00715  -0.0988  0.4880  0.7947
  10.850   1.6526   0.01084   0.00730  -0.0979  0.4863  0.7949
  10.900   1.6501   0.01105   0.00749  -0.0967  0.4841  0.7952
  10.950   1.6472   0.01127   0.00770  -0.0955  0.4819  0.7955
  11.000   1.6440   0.01150   0.00794  -0.0942  0.4798  0.7957
  11.050   1.6457   0.01162   0.00805  -0.0938  0.4785  0.7959
  11.100   1.6468   0.01175   0.00818  -0.0932  0.4769  0.7961
  11.150   1.6476   0.01189   0.00833  -0.0926  0.4751  0.7964
  11.200   1.6476   0.01206   0.00850  -0.0919  0.4732  0.7966
  11.250   1.6436   0.01235   0.00878  -0.0906  0.4702  0.7968
  11.300   1.6387   0.01268   0.00910  -0.0892  0.4672  0.7971
  11.350   1.6295   0.01317   0.00958  -0.0871  0.4638  0.7974
  11.400   1.6231   0.01360   0.00999  -0.0856  0.4612  0.7977
  11.450   1.6193   0.01394   0.01034  -0.0844  0.4588  0.7979
  11.500   1.6185   0.01418   0.01058  -0.0837  0.4574  0.7981
  11.550   1.6127   0.01462   0.01101  -0.0822  0.4535  0.7983
  11.600   1.6097   0.01496   0.01135  -0.0812  0.4516  0.7985
  11.650   1.6021   0.01550   0.01188  -0.0796  0.4486  0.7987
  11.700   1.5877   0.01635   0.01273  -0.0771  0.4447  0.7990
  11.750   1.5843   0.01675   0.01312  -0.0761  0.4433  0.7992
  11.800   1.5707   0.01764   0.01400  -0.0739  0.4397  0.7994
  11.850   1.5669   0.01806   0.01443  -0.0729  0.4370  0.7995
  11.900   1.5646   0.01843   0.01480  -0.0721  0.4356  0.7997
  11.950   1.5587   0.01899   0.01536  -0.0709  0.4332  0.7998
  12.000   1.5482   0.01975   0.01611  -0.0691  0.4296  0.8000
