  
       XFOIL         Version 6.94
  
 Calculated polar for: 1080                                            
  
 1 1 Reynolds number fixed          Mach number fixed         
  
 xtrf =   1.000 (top)        1.000 (bottom)  
 Mach =   0.000     Re =     2.000 e 6     Ncrit =   9.000
  
  alpha     CL        CD       CDp       CM    Top_Xtr Bot_Xtr
 ------- -------- --------- --------- -------- ------- -------
   6.000   1.3390   0.00829   0.00436  -0.1281  0.5389  0.7799
   6.050   1.3436   0.00829   0.00437  -0.1280  0.5388  0.7800
   6.100   1.3483   0.00830   0.00438  -0.1279  0.5387  0.7800
   6.150   1.3529   0.00830   0.00438  -0.1278  0.5386  0.7802
   6.200   1.3575   0.00830   0.00438  -0.1278  0.5384  0.7804
   6.250   1.3621   0.00830   0.00439  -0.1277  0.5383  0.7806
   6.300   1.3667   0.00830   0.00439  -0.1276  0.5382  0.7808
   6.350   1.3713   0.00830   0.00440  -0.1275  0.5380  0.7810
   6.400   1.3758   0.00830   0.00440  -0.1274  0.5379  0.7812
   6.450   1.3803   0.00830   0.00440  -0.1273  0.5377  0.7815
   6.500   1.3849   0.00830   0.00441  -0.1272  0.5375  0.7817
   6.550   1.3893   0.00830   0.00442  -0.1270  0.5373  0.7819
   6.600   1.3937   0.00831   0.00442  -0.1269  0.5371  0.7821
   6.650   1.3981   0.00831   0.00443  -0.1268  0.5369  0.7823
   6.700   1.4025   0.00831   0.00444  -0.1267  0.5367  0.7825
   6.750   1.4070   0.00831   0.00445  -0.1265  0.5365  0.7828
   6.800   1.4114   0.00832   0.00445  -0.1264  0.5363  0.7829
   6.850   1.4159   0.00832   0.00446  -0.1263  0.5361  0.7832
   6.900   1.4203   0.00832   0.00447  -0.1262  0.5358  0.7833
   6.950   1.4248   0.00833   0.00448  -0.1261  0.5355  0.7835
   7.000   1.4293   0.00833   0.00448  -0.1260  0.5353  0.7837
   7.050   1.4338   0.00833   0.00449  -0.1259  0.5350  0.7839
   7.100   1.4384   0.00834   0.00450  -0.1258  0.5347  0.7841
   7.150   1.4428   0.00834   0.00451  -0.1256  0.5344  0.7842
   7.200   1.4473   0.00835   0.00452  -0.1256  0.5341  0.7844
   7.250   1.4519   0.00835   0.00453  -0.1255  0.5339  0.7846
   7.300   1.4565   0.00836   0.00454  -0.1254  0.5336  0.7847
   7.350   1.4610   0.00836   0.00455  -0.1253  0.5332  0.7849
   7.400   1.4656   0.00837   0.00456  -0.1252  0.5329  0.7851
   7.450   1.4702   0.00838   0.00458  -0.1251  0.5327  0.7852
   7.500   1.4746   0.00838   0.00459  -0.1250  0.5323  0.7854
   7.550   1.4789   0.00839   0.00460  -0.1249  0.5320  0.7856
   7.600   1.4832   0.00839   0.00461  -0.1248  0.5317  0.7857
   7.650   1.4875   0.00840   0.00462  -0.1246  0.5314  0.7859
   7.700   1.4918   0.00841   0.00463  -0.1245  0.5310  0.7861
   7.750   1.4959   0.00842   0.00465  -0.1243  0.5307  0.7862
   7.800   1.5002   0.00843   0.00466  -0.1242  0.5304  0.7864
   7.850   1.5043   0.00844   0.00467  -0.1240  0.5300  0.7866
   7.900   1.5084   0.00845   0.00468  -0.1238  0.5295  0.7867
   7.950   1.5126   0.00846   0.00470  -0.1237  0.5292  0.7869
   8.000   1.5166   0.00847   0.00471  -0.1235  0.5287  0.7870
   8.050   1.5206   0.00848   0.00472  -0.1233  0.5283  0.7872
   8.100   1.5246   0.00849   0.00474  -0.1231  0.5278  0.7874
   8.150   1.5286   0.00851   0.00476  -0.1229  0.5274  0.7876
   8.200   1.5326   0.00853   0.00477  -0.1227  0.5270  0.7877
   8.250   1.5364   0.00855   0.00479  -0.1225  0.5265  0.7879
   8.300   1.5397   0.00857   0.00481  -0.1222  0.5257  0.7880
   8.350   1.5440   0.00859   0.00484  -0.1221  0.5254  0.7882
   8.400   1.5475   0.00861   0.00486  -0.1218  0.5248  0.7884
   8.450   1.5512   0.00864   0.00489  -0.1216  0.5241  0.7885
   8.500   1.5548   0.00867   0.00492  -0.1213  0.5234  0.7887
   8.550   1.5588   0.00870   0.00496  -0.1212  0.5228  0.7889
   8.600   1.5627   0.00873   0.00499  -0.1210  0.5222  0.7890
   8.650   1.5666   0.00877   0.00502  -0.1208  0.5213  0.7892
   8.700   1.5709   0.00880   0.00506  -0.1207  0.5207  0.7893
   8.750   1.5753   0.00884   0.00509  -0.1206  0.5200  0.7895
   8.800   1.5796   0.00885   0.00511  -0.1205  0.5198  0.7896
   8.850   1.5839   0.00887   0.00514  -0.1204  0.5197  0.7898
   8.900   1.5881   0.00888   0.00516  -0.1203  0.5195  0.7900
   8.950   1.5922   0.00890   0.00519  -0.1201  0.5194  0.7901
   9.000   1.5961   0.00891   0.00521  -0.1199  0.5191  0.7903
   9.050   1.6003   0.00893   0.00524  -0.1198  0.5189  0.7904
   9.100   1.6043   0.00895   0.00527  -0.1197  0.5187  0.7906
   9.150   1.6084   0.00897   0.00530  -0.1195  0.5184  0.7907
   9.200   1.6125   0.00899   0.00532  -0.1194  0.5180  0.7909
   9.250   1.6166   0.00901   0.00535  -0.1192  0.5177  0.7911
   9.300   1.6208   0.00903   0.00538  -0.1191  0.5174  0.7912
   9.350   1.6250   0.00905   0.00541  -0.1190  0.5170  0.7914
   9.400   1.6292   0.00907   0.00544  -0.1189  0.5167  0.7915
   9.450   1.6334   0.00908   0.00546  -0.1188  0.5161  0.7917
   9.500   1.6377   0.00910   0.00549  -0.1187  0.5156  0.7919
   9.550   1.6420   0.00913   0.00552  -0.1186  0.5152  0.7920
   9.600   1.6462   0.00915   0.00555  -0.1185  0.5146  0.7922
   9.650   1.6504   0.00917   0.00557  -0.1183  0.5139  0.7923
   9.700   1.6544   0.00919   0.00560  -0.1182  0.5133  0.7925
   9.750   1.6584   0.00922   0.00563  -0.1180  0.5126  0.7927
   9.800   1.6621   0.00924   0.00566  -0.1178  0.5118  0.7929
   9.850   1.6656   0.00927   0.00570  -0.1176  0.5111  0.7930
   9.900   1.6687   0.00931   0.00574  -0.1173  0.5102  0.7932
   9.950   1.6714   0.00935   0.00578  -0.1169  0.5093  0.7934
  10.000   1.6741   0.00940   0.00583  -0.1165  0.5084  0.7936
  10.050   1.6764   0.00945   0.00588  -0.1161  0.5074  0.7938
  10.100   1.6784   0.00951   0.00593  -0.1156  0.5063  0.7940
  10.150   1.6809   0.00956   0.00599  -0.1151  0.5056  0.7942
  10.200   1.6819   0.00964   0.00606  -0.1145  0.5042  0.7944
  10.250   1.6836   0.00971   0.00613  -0.1139  0.5031  0.7946
  10.300   1.6834   0.00982   0.00624  -0.1130  0.5016  0.7948
  10.350   1.6838   0.00992   0.00633  -0.1123  0.5003  0.7950
  10.400   1.6869   0.00997   0.00639  -0.1120  0.4997  0.7952
  10.450   1.6909   0.01001   0.00644  -0.1119  0.4990  0.7954
  10.500   1.6948   0.01004   0.00648  -0.1117  0.4985  0.7955
  10.550   1.6985   0.01009   0.00653  -0.1115  0.4976  0.7957
  10.600   1.7020   0.01013   0.00659  -0.1113  0.4966  0.7959
  10.650   1.7053   0.01018   0.00666  -0.1111  0.4957  0.7961
  10.700   1.7083   0.01024   0.00672  -0.1108  0.4945  0.7962
  10.750   1.7104   0.01032   0.00679  -0.1104  0.4928  0.7964
  10.800   1.7120   0.01040   0.00688  -0.1098  0.4913  0.7966
  10.850   1.7128   0.01051   0.00699  -0.1092  0.4896  0.7968
  10.900   1.7129   0.01064   0.00711  -0.1084  0.4878  0.7970
  10.950   1.7122   0.01079   0.00725  -0.1075  0.4859  0.7972
  11.000   1.7102   0.01097   0.00743  -0.1064  0.4838  0.7974
  11.050   1.7064   0.01121   0.00766  -0.1050  0.4815  0.7977
  11.100   1.7047   0.01140   0.00785  -0.1040  0.4795  0.7979
  11.150   1.7070   0.01149   0.00795  -0.1036  0.4784  0.7980
  11.200   1.7075   0.01164   0.00809  -0.1030  0.4762  0.7982
  11.250   1.7079   0.01179   0.00824  -0.1023  0.4746  0.7984
  11.300   1.7055   0.01202   0.00847  -0.1012  0.4719  0.7986
  11.350   1.6989   0.01239   0.00882  -0.0995  0.4677  0.7988
  11.400   1.6986   0.01258   0.00901  -0.0988  0.4668  0.7990
  11.450   1.6879   0.01311   0.00953  -0.0965  0.4629  0.7992
  11.500   1.6789   0.01363   0.01003  -0.0945  0.4595  0.7994
  11.550   1.6778   0.01387   0.01028  -0.0937  0.4575  0.7995
  11.600   1.6756   0.01416   0.01057  -0.0928  0.4552  0.7997
  11.650   1.6723   0.01451   0.01092  -0.0917  0.4531  0.7998
  11.700   1.6653   0.01501   0.01141  -0.0901  0.4498  0.8000
  11.750   1.6594   0.01548   0.01188  -0.0888  0.4477  0.8006
  11.800   1.6499   0.01613   0.01252  -0.0869  0.4448  0.8013
  11.850   1.6372   0.01695   0.01334  -0.0848  0.4417  0.8021
  11.900   1.6275   0.01767   0.01406  -0.0830  0.4385  0.8028
  11.950   1.6224   0.01817   0.01456  -0.0819  0.4357  0.8035
  12.000   1.6173   0.01869   0.01508  -0.0807  0.4334  0.8041
