  
       XFOIL         Version 6.94
  
 Calculated polar for: 1080                                            
  
 1 1 Reynolds number fixed          Mach number fixed         
  
 xtrf =   1.000 (top)        1.000 (bottom)  
 Mach =   0.000     Re =     2.000 e 6     Ncrit =   9.000
  
  alpha     CL        CD       CDp       CM    Top_Xtr Bot_Xtr
 ------- -------- --------- --------- -------- ------- -------
   6.000   1.3231   0.00801   0.00408  -0.1255  0.5392  0.7819
   6.050   1.3274   0.00800   0.00407  -0.1253  0.5390  0.7820
   6.100   1.3316   0.00799   0.00407  -0.1252  0.5389  0.7822
   6.150   1.3359   0.00798   0.00406  -0.1250  0.5388  0.7824
   6.200   1.3403   0.00798   0.00406  -0.1248  0.5387  0.7826
   6.250   1.3447   0.00797   0.00407  -0.1247  0.5385  0.7828
   6.300   1.3490   0.00797   0.00406  -0.1245  0.5383  0.7830
   6.350   1.3535   0.00797   0.00407  -0.1244  0.5382  0.7832
   6.400   1.3580   0.00796   0.00407  -0.1243  0.5380  0.7834
   6.450   1.3624   0.00796   0.00407  -0.1241  0.5378  0.7836
   6.500   1.3670   0.00796   0.00408  -0.1240  0.5376  0.7838
   6.550   1.3715   0.00796   0.00409  -0.1239  0.5374  0.7840
   6.600   1.3761   0.00796   0.00409  -0.1238  0.5371  0.7842
   6.650   1.3807   0.00797   0.00410  -0.1237  0.5369  0.7844
   6.700   1.3853   0.00797   0.00411  -0.1236  0.5367  0.7846
   6.750   1.3899   0.00797   0.00411  -0.1235  0.5364  0.7848
   6.800   1.3945   0.00797   0.00412  -0.1234  0.5361  0.7850
   6.850   1.3992   0.00797   0.00413  -0.1233  0.5359  0.7852
   6.900   1.4038   0.00798   0.00414  -0.1232  0.5356  0.7854
   6.950   1.4084   0.00798   0.00414  -0.1231  0.5353  0.7856
   7.000   1.4130   0.00799   0.00416  -0.1230  0.5350  0.7858
   7.050   1.4174   0.00799   0.00416  -0.1229  0.5347  0.7859
   7.100   1.4220   0.00800   0.00418  -0.1228  0.5344  0.7861
   7.150   1.4265   0.00800   0.00419  -0.1227  0.5341  0.7863
   7.200   1.4310   0.00801   0.00419  -0.1226  0.5338  0.7865
   7.250   1.4355   0.00801   0.00421  -0.1225  0.5335  0.7866
   7.300   1.4400   0.00802   0.00422  -0.1223  0.5331  0.7868
   7.350   1.4445   0.00802   0.00423  -0.1222  0.5328  0.7869
   7.400   1.4490   0.00803   0.00425  -0.1221  0.5324  0.7871
   7.450   1.4534   0.00803   0.00425  -0.1220  0.5320  0.7872
   7.500   1.4579   0.00804   0.00426  -0.1219  0.5316  0.7874
   7.550   1.4624   0.00804   0.00427  -0.1218  0.5312  0.7875
   7.600   1.4669   0.00805   0.00428  -0.1217  0.5309  0.7877
   7.650   1.4714   0.00806   0.00430  -0.1216  0.5305  0.7879
   7.700   1.4758   0.00807   0.00431  -0.1214  0.5301  0.7880
   7.750   1.4803   0.00808   0.00432  -0.1213  0.5297  0.7882
   7.800   1.4845   0.00809   0.00433  -0.1212  0.5292  0.7883
   7.850   1.4887   0.00810   0.00434  -0.1210  0.5287  0.7885
   7.900   1.4930   0.00811   0.00436  -0.1209  0.5282  0.7886
   7.950   1.4971   0.00812   0.00437  -0.1207  0.5278  0.7888
   8.000   1.5010   0.00814   0.00439  -0.1205  0.5273  0.7889
   8.050   1.5049   0.00816   0.00441  -0.1203  0.5268  0.7891
   8.100   1.5084   0.00818   0.00443  -0.1200  0.5262  0.7893
   8.150   1.5121   0.00820   0.00445  -0.1197  0.5257  0.7894
   8.200   1.5155   0.00822   0.00447  -0.1194  0.5251  0.7896
   8.250   1.5187   0.00825   0.00450  -0.1190  0.5243  0.7898
   8.300   1.5223   0.00827   0.00452  -0.1188  0.5237  0.7899
   8.350   1.5263   0.00830   0.00455  -0.1186  0.5233  0.7901
   8.400   1.5297   0.00833   0.00459  -0.1183  0.5223  0.7902
   8.450   1.5336   0.00836   0.00462  -0.1181  0.5216  0.7904
   8.500   1.5376   0.00840   0.00465  -0.1179  0.5208  0.7906
   8.550   1.5418   0.00843   0.00468  -0.1177  0.5201  0.7907
   8.600   1.5463   0.00844   0.00470  -0.1177  0.5199  0.7909
   8.650   1.5508   0.00845   0.00472  -0.1176  0.5197  0.7910
   8.700   1.5554   0.00846   0.00474  -0.1175  0.5194  0.7912
   8.750   1.5600   0.00847   0.00476  -0.1174  0.5192  0.7913
   8.800   1.5646   0.00849   0.00479  -0.1174  0.5190  0.7915
   8.850   1.5692   0.00850   0.00481  -0.1173  0.5187  0.7916
   8.900   1.5738   0.00851   0.00483  -0.1173  0.5185  0.7918
   8.950   1.5784   0.00852   0.00485  -0.1172  0.5181  0.7919
   9.000   1.5830   0.00853   0.00487  -0.1171  0.5176  0.7921
   9.050   1.5876   0.00855   0.00489  -0.1171  0.5172  0.7923
   9.100   1.5923   0.00856   0.00491  -0.1170  0.5167  0.7924
   9.150   1.5969   0.00857   0.00493  -0.1170  0.5162  0.7926
   9.200   1.6015   0.00859   0.00496  -0.1169  0.5156  0.7927
   9.250   1.6060   0.00860   0.00498  -0.1169  0.5150  0.7929
   9.300   1.6105   0.00862   0.00500  -0.1168  0.5143  0.7930
   9.350   1.6149   0.00864   0.00502  -0.1167  0.5137  0.7932
   9.400   1.6191   0.00866   0.00505  -0.1166  0.5128  0.7934
   9.450   1.6231   0.00868   0.00507  -0.1164  0.5120  0.7935
   9.500   1.6269   0.00870   0.00510  -0.1162  0.5112  0.7937
   9.550   1.6301   0.00873   0.00513  -0.1159  0.5101  0.7939
   9.600   1.6332   0.00877   0.00516  -0.1155  0.5091  0.7941
   9.650   1.6361   0.00880   0.00520  -0.1151  0.5081  0.7943
   9.700   1.6386   0.00885   0.00524  -0.1147  0.5070  0.7945
   9.750   1.6405   0.00890   0.00529  -0.1141  0.5056  0.7947
   9.800   1.6431   0.00894   0.00533  -0.1137  0.5047  0.7949
   9.850   1.6441   0.00901   0.00540  -0.1130  0.5030  0.7951
   9.900   1.6456   0.00908   0.00546  -0.1123  0.5016  0.7953
   9.950   1.6476   0.00914   0.00552  -0.1118  0.5004  0.7955
  10.000   1.6510   0.00918   0.00557  -0.1116  0.4996  0.7957
  10.050   1.6551   0.00921   0.00560  -0.1114  0.4991  0.7958
  10.100   1.6590   0.00924   0.00564  -0.1113  0.4984  0.7960
  10.150   1.6627   0.00928   0.00569  -0.1111  0.4976  0.7961
  10.200   1.6662   0.00932   0.00573  -0.1108  0.4965  0.7963
  10.250   1.6694   0.00936   0.00578  -0.1105  0.4953  0.7965
  10.300   1.6723   0.00941   0.00583  -0.1102  0.4939  0.7966
  10.350   1.6749   0.00947   0.00589  -0.1098  0.4923  0.7968
  10.400   1.6757   0.00956   0.00597  -0.1091  0.4895  0.7970
  10.450   1.6764   0.00965   0.00608  -0.1083  0.4873  0.7972
  10.500   1.6772   0.00975   0.00617  -0.1076  0.4856  0.7974
  10.550   1.6742   0.00992   0.00632  -0.1063  0.4829  0.7976
  10.600   1.6707   0.01011   0.00650  -0.1048  0.4798  0.7979
  10.650   1.6729   0.01019   0.00658  -0.1044  0.4781  0.7980
  10.700   1.6752   0.01027   0.00666  -0.1040  0.4768  0.7982
  10.750   1.6761   0.01038   0.00677  -0.1033  0.4747  0.7984
  10.800   1.6733   0.01057   0.00696  -0.1020  0.4710  0.7986
  10.850   1.6688   0.01082   0.00719  -0.1005  0.4671  0.7988
  10.900   1.6669   0.01102   0.00737  -0.0994  0.4650  0.7990
  10.950   1.6565   0.01145   0.00778  -0.0970  0.4603  0.7992
  11.000   1.6569   0.01160   0.00793  -0.0963  0.4586  0.7993
  11.050   1.6576   0.01174   0.00807  -0.0957  0.4571  0.7995
  11.100   1.6540   0.01201   0.00834  -0.0944  0.4539  0.7996
  11.150   1.6503   0.01230   0.00862  -0.0931  0.4508  0.7998
  11.200   1.6468   0.01259   0.00891  -0.0918  0.4483  0.7999
  11.250   1.6389   0.01304   0.00934  -0.0900  0.4452  0.8005
  11.300   1.6303   0.01354   0.00983  -0.0881  0.4419  0.8012
  11.350   1.6256   0.01391   0.01021  -0.0868  0.4395  0.8019
  11.400   1.6247   0.01416   0.01045  -0.0860  0.4376  0.8025
  11.450   1.6218   0.01449   0.01079  -0.0850  0.4354  0.8030
  11.500   1.6186   0.01484   0.01114  -0.0839  0.4331  0.8037
  11.550   1.6132   0.01529   0.01159  -0.0826  0.4304  0.8043
  11.600   1.6058   0.01585   0.01215  -0.0811  0.4276  0.8050
  11.650   1.5950   0.01658   0.01288  -0.0791  0.4246  0.8058
  11.700   1.5841   0.01735   0.01365  -0.0772  0.4213  0.8064
  11.750   1.5779   0.01792   0.01422  -0.0759  0.4190  0.8070
  11.800   1.5761   0.01827   0.01458  -0.0752  0.4173  0.8075
  11.850   1.5715   0.01878   0.01509  -0.0741  0.4150  0.8080
  11.900   1.5663   0.01931   0.01563  -0.0730  0.4128  0.8085
  11.950   1.5588   0.01996   0.01628  -0.0716  0.4099  0.8090
  12.000   1.5472   0.02085   0.01716  -0.0698  0.4071  0.8096
