  
       XFOIL         Version 6.94
  
 Calculated polar for: 1080                                            
  
 1 1 Reynolds number fixed          Mach number fixed         
  
 xtrf =   1.000 (top)        1.000 (bottom)  
 Mach =   0.000     Re =     2.000 e 6     Ncrit =   9.000
  
  alpha     CL        CD       CDp       CM    Top_Xtr Bot_Xtr
 ------- -------- --------- --------- -------- ------- -------
   6.000   1.4096   0.00852   0.00458  -0.1418  0.5383  0.7837
   6.050   1.4142   0.00852   0.00459  -0.1417  0.5382  0.7839
   6.100   1.4188   0.00853   0.00460  -0.1416  0.5381  0.7840
   6.150   1.4235   0.00853   0.00462  -0.1416  0.5380  0.7841
   6.200   1.4281   0.00854   0.00462  -0.1415  0.5378  0.7843
   6.250   1.4327   0.00854   0.00463  -0.1414  0.5377  0.7844
   6.300   1.4374   0.00855   0.00464  -0.1413  0.5376  0.7845
   6.350   1.4420   0.00855   0.00465  -0.1413  0.5374  0.7847
   6.400   1.4466   0.00856   0.00466  -0.1412  0.5372  0.7848
   6.450   1.4513   0.00856   0.00467  -0.1411  0.5371  0.7849
   6.500   1.4559   0.00857   0.00468  -0.1410  0.5369  0.7851
   6.550   1.4606   0.00857   0.00469  -0.1410  0.5368  0.7852
   6.600   1.4651   0.00858   0.00470  -0.1409  0.5366  0.7853
   6.650   1.4697   0.00859   0.00471  -0.1408  0.5365  0.7855
   6.700   1.4742   0.00859   0.00472  -0.1407  0.5363  0.7856
   6.750   1.4786   0.00860   0.00473  -0.1406  0.5361  0.7857
   6.800   1.4831   0.00861   0.00474  -0.1405  0.5359  0.7859
   6.850   1.4875   0.00861   0.00475  -0.1404  0.5357  0.7860
   6.900   1.4920   0.00862   0.00476  -0.1403  0.5355  0.7861
   6.950   1.4964   0.00862   0.00477  -0.1401  0.5352  0.7863
   7.000   1.5010   0.00863   0.00478  -0.1401  0.5350  0.7864
   7.050   1.5054   0.00863   0.00479  -0.1399  0.5347  0.7865
   7.100   1.5099   0.00864   0.00480  -0.1398  0.5345  0.7867
   7.150   1.5144   0.00864   0.00481  -0.1398  0.5343  0.7868
   7.200   1.5189   0.00865   0.00482  -0.1397  0.5340  0.7869
   7.250   1.5234   0.00866   0.00483  -0.1396  0.5338  0.7871
   7.300   1.5280   0.00866   0.00484  -0.1395  0.5335  0.7872
   7.350   1.5325   0.00867   0.00485  -0.1394  0.5332  0.7873
   7.400   1.5370   0.00867   0.00486  -0.1393  0.5330  0.7875
   7.450   1.5416   0.00868   0.00487  -0.1392  0.5327  0.7876
   7.500   1.5460   0.00868   0.00487  -0.1391  0.5323  0.7877
   7.550   1.5505   0.00869   0.00488  -0.1390  0.5321  0.7879
   7.600   1.5551   0.00870   0.00491  -0.1390  0.5318  0.7880
   7.650   1.5595   0.00870   0.00492  -0.1389  0.5315  0.7881
   7.700   1.5638   0.00871   0.00493  -0.1387  0.5312  0.7883
   7.750   1.5681   0.00872   0.00494  -0.1386  0.5309  0.7884
   7.800   1.5722   0.00872   0.00495  -0.1384  0.5306  0.7886
   7.850   1.5764   0.00873   0.00496  -0.1383  0.5303  0.7887
   7.900   1.5805   0.00874   0.00497  -0.1381  0.5300  0.7888
   7.950   1.5846   0.00875   0.00499  -0.1380  0.5297  0.7890
   8.000   1.5887   0.00876   0.00500  -0.1378  0.5293  0.7891
   8.050   1.5928   0.00877   0.00501  -0.1376  0.5290  0.7893
   8.100   1.5969   0.00878   0.00503  -0.1375  0.5286  0.7894
   8.150   1.6008   0.00879   0.00504  -0.1373  0.5281  0.7895
   8.200   1.6049   0.00881   0.00506  -0.1371  0.5278  0.7897
   8.250   1.6088   0.00883   0.00508  -0.1369  0.5274  0.7898
   8.300   1.6128   0.00884   0.00509  -0.1368  0.5270  0.7900
   8.350   1.6167   0.00886   0.00511  -0.1366  0.5266  0.7901
   8.400   1.6205   0.00888   0.00513  -0.1364  0.5261  0.7903
   8.450   1.6244   0.00890   0.00516  -0.1362  0.5257  0.7904
   8.500   1.6281   0.00893   0.00518  -0.1359  0.5252  0.7905
   8.550   1.6317   0.00895   0.00521  -0.1357  0.5245  0.7907
   8.600   1.6355   0.00898   0.00524  -0.1355  0.5239  0.7908
   8.650   1.6393   0.00901   0.00527  -0.1353  0.5232  0.7910
   8.700   1.6432   0.00905   0.00531  -0.1351  0.5226  0.7911
   8.750   1.6474   0.00908   0.00534  -0.1350  0.5220  0.7913
   8.800   1.6516   0.00912   0.00538  -0.1349  0.5212  0.7914
   8.850   1.6560   0.00916   0.00542  -0.1348  0.5206  0.7916
   8.900   1.6605   0.00919   0.00545  -0.1348  0.5200  0.7917
   8.950   1.6648   0.00921   0.00547  -0.1347  0.5199  0.7918
   9.000   1.6689   0.00922   0.00549  -0.1345  0.5197  0.7920
   9.050   1.6732   0.00923   0.00552  -0.1344  0.5196  0.7921
   9.100   1.6772   0.00925   0.00554  -0.1343  0.5194  0.7923
   9.150   1.6812   0.00926   0.00557  -0.1341  0.5192  0.7924
   9.200   1.6851   0.00928   0.00560  -0.1339  0.5190  0.7926
   9.250   1.6890   0.00930   0.00563  -0.1338  0.5188  0.7928
   9.300   1.6929   0.00932   0.00565  -0.1336  0.5186  0.7929
   9.350   1.6969   0.00934   0.00568  -0.1334  0.5184  0.7931
   9.400   1.7008   0.00936   0.00571  -0.1333  0.5181  0.7932
   9.450   1.7048   0.00938   0.00574  -0.1331  0.5178  0.7934
   9.500   1.7089   0.00940   0.00577  -0.1330  0.5176  0.7935
   9.550   1.7129   0.00942   0.00580  -0.1329  0.5171  0.7937
   9.600   1.7170   0.00944   0.00583  -0.1327  0.5168  0.7938
   9.650   1.7211   0.00946   0.00586  -0.1326  0.5163  0.7940
   9.700   1.7253   0.00949   0.00589  -0.1325  0.5160  0.7941
   9.750   1.7294   0.00951   0.00592  -0.1324  0.5156  0.7943
   9.800   1.7336   0.00953   0.00595  -0.1323  0.5151  0.7944
   9.850   1.7377   0.00956   0.00598  -0.1322  0.5146  0.7946
   9.900   1.7419   0.00958   0.00601  -0.1321  0.5141  0.7948
   9.950   1.7460   0.00960   0.00604  -0.1319  0.5136  0.7949
  10.000   1.7499   0.00963   0.00607  -0.1318  0.5130  0.7951
  10.050   1.7536   0.00966   0.00611  -0.1316  0.5125  0.7952
  10.100   1.7571   0.00969   0.00615  -0.1314  0.5118  0.7954
  10.150   1.7604   0.00973   0.00619  -0.1311  0.5112  0.7956
  10.200   1.7634   0.00977   0.00623  -0.1308  0.5104  0.7957
  10.250   1.7662   0.00981   0.00627  -0.1305  0.5095  0.7959
  10.300   1.7694   0.00985   0.00632  -0.1302  0.5090  0.7961
  10.350   1.7715   0.00991   0.00637  -0.1297  0.5078  0.7962
  10.400   1.7745   0.00995   0.00642  -0.1294  0.5072  0.7964
  10.450   1.7763   0.01002   0.00648  -0.1289  0.5061  0.7966
  10.500   1.7779   0.01009   0.00655  -0.1283  0.5050  0.7968
  10.550   1.7792   0.01017   0.00663  -0.1277  0.5040  0.7969
  10.600   1.7796   0.01027   0.00673  -0.1270  0.5029  0.7971
  10.650   1.7794   0.01038   0.00684  -0.1261  0.5016  0.7973
  10.700   1.7799   0.01049   0.00694  -0.1254  0.5004  0.7975
  10.750   1.7831   0.01054   0.00702  -0.1251  0.4997  0.7976
  10.800   1.7872   0.01058   0.00707  -0.1250  0.4992  0.7978
  10.850   1.7911   0.01062   0.00712  -0.1249  0.4987  0.7979
  10.900   1.7950   0.01066   0.00717  -0.1248  0.4981  0.7980
  10.950   1.7985   0.01071   0.00722  -0.1246  0.4974  0.7982
  11.000   1.8016   0.01077   0.00729  -0.1244  0.4964  0.7983
  11.050   1.8043   0.01084   0.00736  -0.1240  0.4954  0.7985
  11.100   1.8064   0.01092   0.00745  -0.1236  0.4940  0.7986
  11.150   1.8086   0.01100   0.00753  -0.1232  0.4929  0.7987
  11.200   1.8096   0.01111   0.00764  -0.1226  0.4911  0.7989
  11.250   1.8096   0.01125   0.00777  -0.1218  0.4889  0.7990
  11.300   1.8107   0.01136   0.00789  -0.1213  0.4877  0.7992
  11.350   1.8086   0.01156   0.00808  -0.1202  0.4858  0.7993
  11.400   1.8047   0.01181   0.00832  -0.1188  0.4835  0.7995
  11.450   1.8005   0.01209   0.00859  -0.1174  0.4811  0.7996
  11.500   1.7988   0.01230   0.00881  -0.1165  0.4795  0.7998
  11.550   1.8001   0.01243   0.00894  -0.1160  0.4783  0.7999
  11.600   1.8012   0.01257   0.00909  -0.1154  0.4769  0.8000
  11.650   1.8015   0.01274   0.00926  -0.1148  0.4752  0.8004
  11.700   1.8010   0.01293   0.00945  -0.1141  0.4734  0.8009
  11.750   1.7976   0.01322   0.00974  -0.1129  0.4710  0.8015
  11.800   1.7919   0.01361   0.01012  -0.1114  0.4679  0.8022
  11.850   1.7837   0.01411   0.01062  -0.1096  0.4652  0.8029
  11.900   1.7748   0.01466   0.01117  -0.1077  0.4624  0.8036
  11.950   1.7654   0.01527   0.01177  -0.1058  0.4595  0.8044
  12.000   1.7640   0.01556   0.01207  -0.1051  0.4577  0.8049
