  
       XFOIL         Version 6.94
  
 Calculated polar for: 1080                                            
  
 1 1 Reynolds number fixed          Mach number fixed         
  
 xtrf =   1.000 (top)        1.000 (bottom)  
 Mach =   0.000     Re =     2.000 e 6     Ncrit =   9.000
  
  alpha     CL        CD       CDp       CM    Top_Xtr Bot_Xtr
 ------- -------- --------- --------- -------- ------- -------
   6.000   1.3595   0.00854   0.00461  -0.1318  0.5385  0.7797
   6.050   1.3640   0.00855   0.00462  -0.1317  0.5384  0.7798
   6.100   1.3685   0.00855   0.00463  -0.1315  0.5382  0.7798
   6.150   1.3730   0.00856   0.00464  -0.1314  0.5381  0.7799
   6.200   1.3775   0.00856   0.00465  -0.1313  0.5380  0.7799
   6.250   1.3820   0.00857   0.00466  -0.1312  0.5379  0.7799
   6.300   1.3866   0.00858   0.00468  -0.1311  0.5378  0.7800
   6.350   1.3910   0.00859   0.00468  -0.1310  0.5376  0.7801
   6.400   1.3954   0.00859   0.00469  -0.1309  0.5375  0.7803
   6.450   1.3999   0.00859   0.00470  -0.1308  0.5373  0.7805
   6.500   1.4045   0.00860   0.00471  -0.1307  0.5372  0.7807
   6.550   1.4091   0.00860   0.00472  -0.1306  0.5370  0.7808
   6.600   1.4136   0.00861   0.00472  -0.1305  0.5368  0.7810
   6.650   1.4181   0.00861   0.00473  -0.1304  0.5367  0.7812
   6.700   1.4226   0.00861   0.00474  -0.1303  0.5365  0.7813
   6.750   1.4272   0.00862   0.00475  -0.1303  0.5363  0.7815
   6.800   1.4317   0.00862   0.00476  -0.1302  0.5361  0.7817
   6.850   1.4362   0.00863   0.00476  -0.1301  0.5359  0.7819
   6.900   1.4408   0.00863   0.00477  -0.1300  0.5356  0.7820
   6.950   1.4454   0.00864   0.00478  -0.1299  0.5355  0.7822
   7.000   1.4499   0.00864   0.00479  -0.1299  0.5352  0.7824
   7.050   1.4544   0.00864   0.00480  -0.1298  0.5350  0.7825
   7.100   1.4590   0.00865   0.00481  -0.1297  0.5348  0.7827
   7.150   1.4634   0.00866   0.00481  -0.1296  0.5345  0.7829
   7.200   1.4677   0.00866   0.00483  -0.1294  0.5342  0.7830
   7.250   1.4721   0.00867   0.00484  -0.1293  0.5340  0.7832
   7.300   1.4763   0.00868   0.00485  -0.1292  0.5337  0.7834
   7.350   1.4806   0.00868   0.00486  -0.1290  0.5334  0.7836
   7.400   1.4848   0.00869   0.00486  -0.1289  0.5331  0.7838
   7.450   1.4891   0.00869   0.00487  -0.1288  0.5328  0.7840
   7.500   1.4934   0.00870   0.00489  -0.1286  0.5326  0.7841
   7.550   1.4977   0.00870   0.00490  -0.1285  0.5322  0.7843
   7.600   1.5021   0.00871   0.00492  -0.1284  0.5320  0.7845
   7.650   1.5065   0.00872   0.00493  -0.1283  0.5317  0.7846
   7.700   1.5109   0.00873   0.00494  -0.1282  0.5314  0.7848
   7.750   1.5151   0.00873   0.00495  -0.1281  0.5310  0.7850
   7.800   1.5195   0.00874   0.00496  -0.1280  0.5308  0.7852
   7.850   1.5238   0.00874   0.00497  -0.1278  0.5304  0.7853
   7.900   1.5281   0.00875   0.00498  -0.1277  0.5301  0.7855
   7.950   1.5324   0.00876   0.00499  -0.1276  0.5297  0.7857
   8.000   1.5367   0.00877   0.00501  -0.1275  0.5294  0.7858
   8.050   1.5410   0.00879   0.00502  -0.1274  0.5291  0.7860
   8.100   1.5453   0.00880   0.00504  -0.1272  0.5287  0.7862
   8.150   1.5495   0.00881   0.00505  -0.1271  0.5284  0.7863
   8.200   1.5534   0.00883   0.00507  -0.1269  0.5279  0.7865
   8.250   1.5575   0.00884   0.00509  -0.1268  0.5276  0.7867
   8.300   1.5616   0.00886   0.00511  -0.1266  0.5272  0.7868
   8.350   1.5655   0.00888   0.00513  -0.1264  0.5268  0.7870
   8.400   1.5693   0.00890   0.00515  -0.1262  0.5263  0.7872
   8.450   1.5729   0.00892   0.00517  -0.1260  0.5257  0.7873
   8.500   1.5764   0.00895   0.00520  -0.1257  0.5252  0.7875
   8.550   1.5797   0.00898   0.00523  -0.1254  0.5246  0.7877
   8.600   1.5832   0.00901   0.00526  -0.1252  0.5241  0.7879
   8.650   1.5862   0.00905   0.00530  -0.1248  0.5233  0.7880
   8.700   1.5896   0.00909   0.00534  -0.1245  0.5226  0.7882
   8.750   1.5933   0.00913   0.00538  -0.1243  0.5220  0.7884
   8.800   1.5971   0.00917   0.00542  -0.1242  0.5212  0.7885
   8.850   1.6013   0.00920   0.00546  -0.1241  0.5206  0.7887
   8.900   1.6054   0.00924   0.00549  -0.1239  0.5199  0.7888
   8.950   1.6095   0.00926   0.00552  -0.1238  0.5199  0.7890
   9.000   1.6135   0.00928   0.00555  -0.1236  0.5197  0.7892
   9.050   1.6173   0.00929   0.00558  -0.1234  0.5196  0.7893
   9.100   1.6213   0.00931   0.00561  -0.1233  0.5194  0.7895
   9.150   1.6254   0.00933   0.00563  -0.1232  0.5192  0.7896
   9.200   1.6294   0.00935   0.00566  -0.1230  0.5190  0.7898
   9.250   1.6335   0.00937   0.00569  -0.1229  0.5188  0.7899
   9.300   1.6376   0.00939   0.00572  -0.1228  0.5186  0.7901
   9.350   1.6418   0.00941   0.00575  -0.1226  0.5184  0.7903
   9.400   1.6458   0.00943   0.00578  -0.1225  0.5181  0.7904
   9.450   1.6497   0.00946   0.00581  -0.1223  0.5178  0.7906
   9.500   1.6534   0.00948   0.00585  -0.1221  0.5174  0.7907
   9.550   1.6573   0.00951   0.00588  -0.1220  0.5171  0.7909
   9.600   1.6610   0.00954   0.00592  -0.1218  0.5167  0.7911
   9.650   1.6648   0.00956   0.00595  -0.1216  0.5162  0.7912
   9.700   1.6686   0.00959   0.00599  -0.1214  0.5158  0.7914
   9.750   1.6725   0.00962   0.00602  -0.1213  0.5154  0.7916
   9.800   1.6764   0.00965   0.00606  -0.1211  0.5149  0.7917
   9.850   1.6803   0.00968   0.00609  -0.1210  0.5144  0.7919
   9.900   1.6842   0.00970   0.00613  -0.1208  0.5138  0.7920
   9.950   1.6881   0.00973   0.00616  -0.1207  0.5133  0.7922
  10.000   1.6918   0.00976   0.00620  -0.1205  0.5126  0.7924
  10.050   1.6956   0.00980   0.00624  -0.1203  0.5121  0.7925
  10.100   1.6991   0.00983   0.00628  -0.1201  0.5113  0.7927
  10.150   1.7026   0.00987   0.00632  -0.1199  0.5108  0.7929
  10.200   1.7057   0.00992   0.00637  -0.1196  0.5102  0.7931
  10.250   1.7077   0.00997   0.00643  -0.1191  0.5090  0.7933
  10.300   1.7100   0.01003   0.00648  -0.1187  0.5083  0.7934
  10.350   1.7123   0.01009   0.00655  -0.1183  0.5075  0.7936
  10.400   1.7138   0.01017   0.00662  -0.1177  0.5064  0.7938
  10.450   1.7158   0.01024   0.00669  -0.1173  0.5056  0.7940
  10.500   1.7166   0.01033   0.00678  -0.1166  0.5044  0.7942
  10.550   1.7178   0.01042   0.00687  -0.1160  0.5034  0.7945
  10.600   1.7172   0.01055   0.00700  -0.1151  0.5022  0.7947
  10.650   1.7170   0.01068   0.00712  -0.1143  0.5009  0.7949
  10.700   1.7183   0.01077   0.00722  -0.1137  0.4999  0.7951
  10.750   1.7223   0.01082   0.00727  -0.1136  0.4994  0.7953
  10.800   1.7262   0.01086   0.00734  -0.1135  0.4989  0.7954
  10.850   1.7300   0.01091   0.00740  -0.1133  0.4984  0.7956
  10.900   1.7336   0.01096   0.00746  -0.1132  0.4977  0.7958
  10.950   1.7367   0.01102   0.00753  -0.1130  0.4966  0.7959
  11.000   1.7393   0.01110   0.00761  -0.1126  0.4956  0.7961
  11.050   1.7416   0.01118   0.00770  -0.1123  0.4946  0.7963
  11.100   1.7432   0.01128   0.00780  -0.1118  0.4931  0.7965
  11.150   1.7448   0.01138   0.00791  -0.1113  0.4918  0.7967
  11.200   1.7455   0.01151   0.00803  -0.1107  0.4901  0.7969
  11.250   1.7457   0.01166   0.00817  -0.1100  0.4884  0.7971
  11.300   1.7435   0.01187   0.00838  -0.1089  0.4864  0.7973
  11.350   1.7385   0.01217   0.00867  -0.1074  0.4839  0.7975
  11.400   1.7325   0.01252   0.00901  -0.1058  0.4812  0.7978
  11.450   1.7305   0.01276   0.00925  -0.1048  0.4798  0.7980
  11.500   1.7322   0.01289   0.00939  -0.1044  0.4787  0.7981
  11.550   1.7330   0.01304   0.00955  -0.1038  0.4772  0.7983
  11.600   1.7335   0.01321   0.00972  -0.1032  0.4755  0.7985
  11.650   1.7309   0.01350   0.01000  -0.1022  0.4731  0.7986
  11.700   1.7286   0.01378   0.01028  -0.1012  0.4711  0.7988
  11.750   1.7226   0.01420   0.01070  -0.0998  0.4680  0.7990
  11.800   1.7118   0.01484   0.01132  -0.0976  0.4648  0.7992
  11.850   1.6992   0.01559   0.01206  -0.0954  0.4615  0.7995
  11.900   1.6936   0.01607   0.01253  -0.0940  0.4591  0.7996
  11.950   1.6912   0.01642   0.01289  -0.0932  0.4574  0.7997
  12.000   1.6874   0.01684   0.01331  -0.0921  0.4553  0.7999
