  
       XFOIL         Version 6.94
  
 Calculated polar for: 1080                                            
  
 1 1 Reynolds number fixed          Mach number fixed         
  
 xtrf =   1.000 (top)        1.000 (bottom)  
 Mach =   0.000     Re =     2.000 e 6     Ncrit =   9.000
  
  alpha     CL        CD       CDp       CM    Top_Xtr Bot_Xtr
 ------- -------- --------- --------- -------- ------- -------
   6.000   1.3947   0.00868   0.00474  -0.1386  0.5382  0.7808
   6.050   1.3992   0.00868   0.00474  -0.1385  0.5381  0.7809
   6.100   1.4037   0.00868   0.00475  -0.1384  0.5379  0.7811
   6.150   1.4082   0.00868   0.00476  -0.1383  0.5378  0.7812
   6.200   1.4126   0.00868   0.00477  -0.1382  0.5377  0.7814
   6.250   1.4172   0.00869   0.00478  -0.1381  0.5375  0.7815
   6.300   1.4216   0.00869   0.00479  -0.1380  0.5374  0.7817
   6.350   1.4262   0.00870   0.00480  -0.1379  0.5373  0.7818
   6.400   1.4306   0.00871   0.00481  -0.1378  0.5371  0.7820
   6.450   1.4352   0.00871   0.00482  -0.1377  0.5370  0.7821
   6.500   1.4397   0.00872   0.00483  -0.1376  0.5368  0.7823
   6.550   1.4443   0.00873   0.00484  -0.1375  0.5367  0.7824
   6.600   1.4488   0.00873   0.00485  -0.1374  0.5365  0.7826
   6.650   1.4534   0.00874   0.00486  -0.1373  0.5363  0.7827
   6.700   1.4580   0.00875   0.00487  -0.1373  0.5362  0.7829
   6.750   1.4625   0.00875   0.00488  -0.1372  0.5360  0.7831
   6.800   1.4671   0.00876   0.00489  -0.1371  0.5358  0.7832
   6.850   1.4716   0.00877   0.00490  -0.1370  0.5356  0.7833
   6.900   1.4762   0.00877   0.00491  -0.1370  0.5354  0.7835
   6.950   1.4808   0.00878   0.00493  -0.1369  0.5352  0.7837
   7.000   1.4853   0.00878   0.00493  -0.1368  0.5350  0.7838
   7.050   1.4899   0.00879   0.00494  -0.1367  0.5348  0.7840
   7.100   1.4945   0.00880   0.00495  -0.1367  0.5345  0.7841
   7.150   1.4990   0.00880   0.00496  -0.1366  0.5343  0.7843
   7.200   1.5035   0.00881   0.00497  -0.1365  0.5341  0.7844
   7.250   1.5078   0.00882   0.00498  -0.1364  0.5338  0.7846
   7.300   1.5121   0.00882   0.00499  -0.1362  0.5335  0.7848
   7.350   1.5164   0.00883   0.00500  -0.1361  0.5333  0.7849
   7.400   1.5208   0.00884   0.00502  -0.1360  0.5331  0.7851
   7.450   1.5250   0.00885   0.00503  -0.1359  0.5328  0.7852
   7.500   1.5293   0.00886   0.00504  -0.1357  0.5326  0.7854
   7.550   1.5336   0.00886   0.00505  -0.1356  0.5323  0.7855
   7.600   1.5379   0.00887   0.00506  -0.1355  0.5320  0.7857
   7.650   1.5422   0.00887   0.00508  -0.1354  0.5317  0.7859
   7.700   1.5465   0.00888   0.00509  -0.1352  0.5314  0.7860
   7.750   1.5508   0.00889   0.00510  -0.1351  0.5311  0.7862
   7.800   1.5552   0.00890   0.00512  -0.1350  0.5309  0.7863
   7.850   1.5595   0.00890   0.00513  -0.1349  0.5306  0.7865
   7.900   1.5638   0.00891   0.00514  -0.1348  0.5303  0.7866
   7.950   1.5681   0.00892   0.00515  -0.1347  0.5299  0.7868
   8.000   1.5724   0.00893   0.00516  -0.1346  0.5296  0.7869
   8.050   1.5766   0.00894   0.00518  -0.1344  0.5293  0.7871
   8.100   1.5808   0.00895   0.00519  -0.1343  0.5289  0.7872
   8.150   1.5850   0.00896   0.00520  -0.1342  0.5286  0.7874
   8.200   1.5891   0.00898   0.00522  -0.1340  0.5282  0.7875
   8.250   1.5932   0.00899   0.00523  -0.1339  0.5278  0.7877
   8.300   1.5972   0.00901   0.00525  -0.1337  0.5274  0.7878
   8.350   1.6012   0.00903   0.00527  -0.1335  0.5270  0.7880
   8.400   1.6050   0.00904   0.00529  -0.1333  0.5266  0.7881
   8.450   1.6089   0.00907   0.00531  -0.1331  0.5261  0.7883
   8.500   1.6127   0.00909   0.00534  -0.1329  0.5257  0.7884
   8.550   1.6164   0.00912   0.00537  -0.1327  0.5252  0.7886
   8.600   1.6201   0.00915   0.00540  -0.1325  0.5247  0.7887
   8.650   1.6232   0.00918   0.00543  -0.1322  0.5240  0.7889
   8.700   1.6268   0.00921   0.00547  -0.1320  0.5235  0.7891
   8.750   1.6302   0.00925   0.00550  -0.1317  0.5229  0.7892
   8.800   1.6339   0.00929   0.00555  -0.1315  0.5223  0.7894
   8.850   1.6378   0.00933   0.00559  -0.1313  0.5216  0.7895
   8.900   1.6418   0.00937   0.00563  -0.1312  0.5209  0.7897
   8.950   1.6461   0.00941   0.00567  -0.1311  0.5202  0.7898
   9.000   1.6499   0.00943   0.00570  -0.1309  0.5199  0.7900
   9.050   1.6538   0.00945   0.00573  -0.1308  0.5198  0.7901
   9.100   1.6578   0.00947   0.00576  -0.1306  0.5197  0.7903
   9.150   1.6615   0.00949   0.00578  -0.1304  0.5195  0.7904
   9.200   1.6656   0.00951   0.00581  -0.1303  0.5194  0.7906
   9.250   1.6695   0.00953   0.00584  -0.1301  0.5192  0.7907
   9.300   1.6736   0.00955   0.00587  -0.1300  0.5190  0.7909
   9.350   1.6776   0.00957   0.00590  -0.1298  0.5188  0.7910
   9.400   1.6815   0.00959   0.00593  -0.1297  0.5185  0.7912
   9.450   1.6856   0.00961   0.00596  -0.1296  0.5183  0.7913
   9.500   1.6895   0.00963   0.00599  -0.1294  0.5180  0.7915
   9.550   1.6934   0.00966   0.00602  -0.1293  0.5177  0.7916
   9.600   1.6971   0.00969   0.00606  -0.1291  0.5174  0.7918
   9.650   1.7008   0.00971   0.00610  -0.1289  0.5170  0.7920
   9.700   1.7045   0.00975   0.00614  -0.1287  0.5168  0.7921
   9.750   1.7082   0.00977   0.00617  -0.1285  0.5164  0.7923
   9.800   1.7120   0.00980   0.00621  -0.1283  0.5159  0.7924
   9.850   1.7158   0.00983   0.00624  -0.1282  0.5155  0.7926
   9.900   1.7197   0.00986   0.00628  -0.1280  0.5151  0.7928
   9.950   1.7235   0.00989   0.00631  -0.1279  0.5145  0.7929
  10.000   1.7274   0.00992   0.00635  -0.1277  0.5141  0.7931
  10.050   1.7313   0.00995   0.00639  -0.1276  0.5137  0.7933
  10.100   1.7351   0.00998   0.00643  -0.1274  0.5130  0.7934
  10.150   1.7389   0.01001   0.00646  -0.1273  0.5125  0.7936
  10.200   1.7424   0.01005   0.00650  -0.1271  0.5118  0.7938
  10.250   1.7458   0.01008   0.00655  -0.1268  0.5112  0.7939
  10.300   1.7490   0.01013   0.00659  -0.1266  0.5106  0.7941
  10.350   1.7517   0.01018   0.00665  -0.1262  0.5099  0.7943
  10.400   1.7541   0.01023   0.00670  -0.1258  0.5091  0.7945
  10.450   1.7567   0.01029   0.00676  -0.1255  0.5085  0.7946
  10.500   1.7587   0.01036   0.00683  -0.1250  0.5075  0.7948
  10.550   1.7607   0.01042   0.00690  -0.1245  0.5067  0.7950
  10.600   1.7621   0.01051   0.00698  -0.1240  0.5056  0.7952
  10.650   1.7636   0.01059   0.00706  -0.1234  0.5047  0.7954
  10.700   1.7646   0.01069   0.00716  -0.1228  0.5039  0.7956
  10.750   1.7641   0.01082   0.00729  -0.1219  0.5027  0.7958
  10.800   1.7638   0.01095   0.00742  -0.1211  0.5014  0.7960
  10.850   1.7637   0.01108   0.00755  -0.1203  0.5000  0.7962
  10.900   1.7675   0.01113   0.00762  -0.1202  0.4997  0.7964
  10.950   1.7715   0.01117   0.00767  -0.1201  0.4991  0.7965
  11.000   1.7751   0.01123   0.00774  -0.1199  0.4987  0.7967
  11.050   1.7786   0.01128   0.00780  -0.1198  0.4981  0.7969
  11.100   1.7817   0.01135   0.00788  -0.1195  0.4973  0.7970
  11.150   1.7844   0.01142   0.00796  -0.1192  0.4966  0.7972
  11.200   1.7869   0.01150   0.00805  -0.1189  0.4955  0.7973
  11.250   1.7893   0.01159   0.00814  -0.1186  0.4946  0.7975
  11.300   1.7916   0.01168   0.00823  -0.1182  0.4936  0.7977
  11.350   1.7932   0.01179   0.00834  -0.1177  0.4921  0.7978
  11.400   1.7935   0.01193   0.00848  -0.1171  0.4901  0.7980
  11.450   1.7919   0.01213   0.00868  -0.1161  0.4882  0.7982
  11.500   1.7909   0.01232   0.00887  -0.1152  0.4868  0.7984
  11.550   1.7862   0.01263   0.00916  -0.1138  0.4842  0.7986
  11.600   1.7778   0.01307   0.00959  -0.1119  0.4814  0.7988
  11.650   1.7775   0.01327   0.00979  -0.1112  0.4805  0.7990
  11.700   1.7769   0.01348   0.01001  -0.1104  0.4783  0.7991
  11.750   1.7777   0.01365   0.01019  -0.1099  0.4772  0.7992
  11.800   1.7761   0.01391   0.01044  -0.1090  0.4752  0.7994
  11.850   1.7748   0.01416   0.01070  -0.1082  0.4733  0.7995
  11.900   1.7699   0.01456   0.01109  -0.1069  0.4704  0.7997
  11.950   1.7626   0.01507   0.01159  -0.1053  0.4677  0.7998
  12.000   1.7522   0.01573   0.01225  -0.1033  0.4648  0.8000
