  
       XFOIL         Version 6.94
  
 Calculated polar for: 1080                                            
  
 1 1 Reynolds number fixed          Mach number fixed         
  
 xtrf =   1.000 (top)        1.000 (bottom)  
 Mach =   0.000     Re =     2.000 e 6     Ncrit =   9.000
  
  alpha     CL        CD       CDp       CM    Top_Xtr Bot_Xtr
 ------- -------- --------- --------- -------- ------- -------
   6.000   1.2986   0.00818   0.00426  -0.1202  0.5391  0.7791
   6.050   1.3032   0.00819   0.00427  -0.1201  0.5390  0.7792
   6.100   1.3078   0.00819   0.00428  -0.1200  0.5389  0.7792
   6.150   1.3123   0.00819   0.00428  -0.1199  0.5388  0.7793
   6.200   1.3169   0.00820   0.00429  -0.1198  0.5386  0.7793
   6.250   1.3214   0.00820   0.00430  -0.1197  0.5385  0.7794
   6.300   1.3259   0.00820   0.00430  -0.1196  0.5384  0.7794
   6.350   1.3302   0.00821   0.00431  -0.1194  0.5382  0.7795
   6.400   1.3346   0.00821   0.00432  -0.1193  0.5380  0.7795
   6.450   1.3390   0.00822   0.00433  -0.1191  0.5379  0.7796
   6.500   1.3434   0.00822   0.00434  -0.1190  0.5377  0.7796
   6.550   1.3477   0.00822   0.00434  -0.1189  0.5375  0.7797
   6.600   1.3522   0.00823   0.00435  -0.1187  0.5373  0.7797
   6.650   1.3567   0.00824   0.00436  -0.1186  0.5371  0.7797
   6.700   1.3612   0.00824   0.00437  -0.1185  0.5369  0.7798
   6.750   1.3656   0.00825   0.00438  -0.1184  0.5367  0.7798
   6.800   1.3701   0.00825   0.00439  -0.1183  0.5364  0.7799
   6.850   1.3745   0.00825   0.00440  -0.1181  0.5362  0.7799
   6.900   1.3791   0.00826   0.00441  -0.1181  0.5359  0.7799
   6.950   1.3836   0.00827   0.00442  -0.1179  0.5356  0.7800
   7.000   1.3882   0.00827   0.00443  -0.1179  0.5354  0.7801
   7.050   1.3927   0.00827   0.00443  -0.1178  0.5351  0.7803
   7.100   1.3973   0.00828   0.00444  -0.1177  0.5348  0.7805
   7.150   1.4019   0.00828   0.00444  -0.1176  0.5345  0.7807
   7.200   1.4064   0.00828   0.00445  -0.1175  0.5342  0.7809
   7.250   1.4109   0.00829   0.00446  -0.1174  0.5339  0.7811
   7.300   1.4154   0.00829   0.00447  -0.1173  0.5336  0.7813
   7.350   1.4197   0.00829   0.00448  -0.1171  0.5333  0.7816
   7.400   1.4240   0.00830   0.00449  -0.1170  0.5330  0.7818
   7.450   1.4283   0.00831   0.00450  -0.1169  0.5326  0.7820
   7.500   1.4327   0.00831   0.00452  -0.1168  0.5324  0.7823
   7.550   1.4369   0.00832   0.00452  -0.1166  0.5320  0.7825
   7.600   1.4412   0.00832   0.00454  -0.1165  0.5316  0.7828
   7.650   1.4455   0.00833   0.00455  -0.1163  0.5313  0.7830
   7.700   1.4499   0.00834   0.00456  -0.1162  0.5310  0.7833
   7.750   1.4540   0.00834   0.00457  -0.1160  0.5305  0.7836
   7.800   1.4584   0.00835   0.00458  -0.1159  0.5302  0.7838
   7.850   1.4626   0.00836   0.00459  -0.1158  0.5298  0.7841
   7.900   1.4667   0.00837   0.00460  -0.1156  0.5293  0.7843
   7.950   1.4710   0.00838   0.00462  -0.1155  0.5289  0.7845
   8.000   1.4750   0.00839   0.00463  -0.1153  0.5284  0.7847
   8.050   1.4791   0.00841   0.00464  -0.1151  0.5280  0.7850
   8.100   1.4831   0.00842   0.00466  -0.1149  0.5275  0.7852
   8.150   1.4870   0.00844   0.00468  -0.1147  0.5270  0.7854
   8.200   1.4910   0.00846   0.00470  -0.1145  0.5266  0.7856
   8.250   1.4947   0.00848   0.00472  -0.1143  0.5260  0.7858
   8.300   1.4984   0.00850   0.00474  -0.1141  0.5255  0.7860
   8.350   1.5020   0.00852   0.00477  -0.1138  0.5248  0.7862
   8.400   1.5057   0.00855   0.00479  -0.1136  0.5242  0.7864
   8.450   1.5094   0.00858   0.00482  -0.1134  0.5236  0.7866
   8.500   1.5130   0.00861   0.00486  -0.1131  0.5229  0.7868
   8.550   1.5171   0.00864   0.00489  -0.1129  0.5223  0.7870
   8.600   1.5206   0.00868   0.00493  -0.1127  0.5214  0.7871
   8.650   1.5246   0.00871   0.00496  -0.1125  0.5208  0.7873
   8.700   1.5286   0.00875   0.00500  -0.1124  0.5200  0.7875
   8.750   1.5327   0.00877   0.00503  -0.1122  0.5199  0.7877
   8.800   1.5366   0.00878   0.00505  -0.1120  0.5197  0.7879
   8.850   1.5406   0.00880   0.00508  -0.1119  0.5195  0.7880
   8.900   1.5448   0.00882   0.00510  -0.1117  0.5193  0.7882
   8.950   1.5489   0.00883   0.00513  -0.1116  0.5191  0.7884
   9.000   1.5530   0.00885   0.00516  -0.1114  0.5188  0.7886
   9.050   1.5572   0.00887   0.00518  -0.1113  0.5185  0.7887
   9.100   1.5614   0.00889   0.00521  -0.1112  0.5182  0.7889
   9.150   1.5657   0.00890   0.00524  -0.1111  0.5179  0.7891
   9.200   1.5700   0.00892   0.00526  -0.1110  0.5176  0.7892
   9.250   1.5742   0.00894   0.00529  -0.1109  0.5171  0.7894
   9.300   1.5786   0.00896   0.00532  -0.1108  0.5167  0.7896
   9.350   1.5828   0.00898   0.00535  -0.1107  0.5163  0.7897
   9.400   1.5871   0.00900   0.00537  -0.1106  0.5157  0.7899
   9.450   1.5915   0.00902   0.00540  -0.1105  0.5153  0.7901
   9.500   1.5957   0.00904   0.00543  -0.1104  0.5147  0.7902
   9.550   1.5999   0.00906   0.00546  -0.1102  0.5141  0.7904
   9.600   1.6037   0.00909   0.00549  -0.1101  0.5134  0.7906
   9.650   1.6071   0.00912   0.00552  -0.1098  0.5124  0.7907
   9.700   1.6107   0.00915   0.00556  -0.1096  0.5118  0.7909
   9.750   1.6138   0.00918   0.00559  -0.1093  0.5109  0.7911
   9.800   1.6169   0.00922   0.00563  -0.1089  0.5100  0.7913
   9.850   1.6198   0.00927   0.00568  -0.1086  0.5091  0.7915
   9.900   1.6226   0.00931   0.00572  -0.1082  0.5083  0.7917
   9.950   1.6250   0.00936   0.00577  -0.1078  0.5072  0.7919
  10.000   1.6272   0.00942   0.00583  -0.1073  0.5061  0.7921
  10.050   1.6296   0.00948   0.00588  -0.1069  0.5053  0.7923
  10.100   1.6301   0.00956   0.00597  -0.1061  0.5038  0.7925
  10.150   1.6298   0.00967   0.00607  -0.1052  0.5023  0.7928
  10.200   1.6303   0.00976   0.00616  -0.1044  0.5010  0.7930
  10.250   1.6318   0.00985   0.00625  -0.1039  0.4998  0.7932
  10.300   1.6360   0.00988   0.00629  -0.1038  0.4994  0.7934
  10.350   1.6400   0.00991   0.00633  -0.1037  0.4985  0.7935
  10.400   1.6438   0.00995   0.00638  -0.1035  0.4977  0.7937
  10.450   1.6475   0.01000   0.00643  -0.1033  0.4971  0.7939
  10.500   1.6506   0.01005   0.00649  -0.1030  0.4957  0.7941
  10.550   1.6533   0.01011   0.00655  -0.1027  0.4945  0.7943
  10.600   1.6553   0.01019   0.00663  -0.1022  0.4930  0.7945
  10.650   1.6574   0.01027   0.00673  -0.1018  0.4918  0.7947
  10.700   1.6582   0.01037   0.00683  -0.1011  0.4899  0.7949
  10.750   1.6590   0.01048   0.00694  -0.1005  0.4883  0.7951
  10.800   1.6585   0.01063   0.00707  -0.0996  0.4862  0.7954
  10.850   1.6554   0.01083   0.00727  -0.0983  0.4838  0.7956
  10.900   1.6528   0.01104   0.00747  -0.0971  0.4819  0.7959
  10.950   1.6508   0.01124   0.00767  -0.0960  0.4797  0.7962
  11.000   1.6528   0.01134   0.00777  -0.0956  0.4784  0.7964
  11.050   1.6536   0.01147   0.00790  -0.0950  0.4767  0.7966
  11.100   1.6529   0.01165   0.00808  -0.0942  0.4744  0.7968
  11.150   1.6517   0.01185   0.00827  -0.0933  0.4720  0.7970
  11.200   1.6481   0.01212   0.00854  -0.0920  0.4688  0.7972
  11.250   1.6431   0.01245   0.00886  -0.0905  0.4663  0.7975
  11.300   1.6377   0.01280   0.00920  -0.0890  0.4637  0.7978
  11.350   1.6278   0.01333   0.00972  -0.0869  0.4603  0.7981
  11.400   1.6264   0.01358   0.00997  -0.0861  0.4580  0.7982
  11.450   1.6237   0.01388   0.01027  -0.0850  0.4553  0.7984
  11.500   1.6207   0.01421   0.01059  -0.0840  0.4532  0.7986
  11.550   1.6178   0.01453   0.01092  -0.0830  0.4512  0.7988
  11.600   1.6050   0.01528   0.01164  -0.0806  0.4468  0.7991
  11.650   1.5900   0.01616   0.01251  -0.0781  0.4427  0.7993
  11.700   1.5816   0.01677   0.01312  -0.0764  0.4401  0.7995
  11.750   1.5793   0.01713   0.01348  -0.0756  0.4382  0.7997
  11.800   1.5758   0.01756   0.01391  -0.0746  0.4363  0.7998
  11.850   1.5721   0.01798   0.01434  -0.0736  0.4340  0.7999
  11.900   1.5569   0.01897   0.01532  -0.0713  0.4294  0.8005
  11.950   1.5562   0.01927   0.01562  -0.0707  0.4286  0.8010
  12.000   1.5376   0.02046   0.01680  -0.0680  0.4246  0.8019
