  
       XFOIL         Version 6.94
  
 Calculated polar for: 1080                                            
  
 1 1 Reynolds number fixed          Mach number fixed         
  
 xtrf =   1.000 (top)        1.000 (bottom)  
 Mach =   0.000     Re =     2.000 e 6     Ncrit =   9.000
  
  alpha     CL        CD       CDp       CM    Top_Xtr Bot_Xtr
 ------- -------- --------- --------- -------- ------- -------
   6.000   1.3837   0.00878   0.00485  -0.1362  0.5381  0.7798
   6.050   1.3881   0.00878   0.00486  -0.1361  0.5380  0.7798
   6.100   1.3926   0.00879   0.00487  -0.1360  0.5379  0.7798
   6.150   1.3970   0.00879   0.00487  -0.1359  0.5377  0.7799
   6.200   1.4014   0.00880   0.00488  -0.1358  0.5376  0.7799
   6.250   1.4060   0.00881   0.00490  -0.1357  0.5375  0.7799
   6.300   1.4105   0.00881   0.00491  -0.1356  0.5373  0.7799
   6.350   1.4150   0.00882   0.00492  -0.1355  0.5372  0.7800
   6.400   1.4195   0.00883   0.00493  -0.1354  0.5370  0.7800
   6.450   1.4241   0.00883   0.00494  -0.1353  0.5369  0.7801
   6.500   1.4288   0.00884   0.00495  -0.1353  0.5367  0.7803
   6.550   1.4333   0.00884   0.00496  -0.1352  0.5365  0.7805
   6.600   1.4379   0.00885   0.00497  -0.1351  0.5364  0.7806
   6.650   1.4426   0.00886   0.00498  -0.1351  0.5362  0.7808
   6.700   1.4471   0.00886   0.00499  -0.1350  0.5360  0.7809
   6.750   1.4517   0.00887   0.00499  -0.1349  0.5359  0.7811
   6.800   1.4563   0.00887   0.00500  -0.1349  0.5357  0.7812
   6.850   1.4608   0.00888   0.00501  -0.1348  0.5355  0.7814
   6.900   1.4653   0.00889   0.00503  -0.1347  0.5353  0.7816
   6.950   1.4697   0.00890   0.00504  -0.1346  0.5351  0.7818
   7.000   1.4740   0.00890   0.00505  -0.1345  0.5349  0.7819
   7.050   1.4784   0.00891   0.00506  -0.1344  0.5347  0.7821
   7.100   1.4826   0.00892   0.00507  -0.1342  0.5345  0.7823
   7.150   1.4870   0.00893   0.00508  -0.1341  0.5343  0.7824
   7.200   1.4913   0.00893   0.00509  -0.1340  0.5340  0.7826
   7.250   1.4957   0.00894   0.00510  -0.1339  0.5338  0.7828
   7.300   1.5001   0.00895   0.00511  -0.1338  0.5336  0.7830
   7.350   1.5044   0.00895   0.00512  -0.1337  0.5333  0.7831
   7.400   1.5089   0.00896   0.00513  -0.1336  0.5331  0.7833
   7.450   1.5133   0.00897   0.00514  -0.1335  0.5328  0.7835
   7.500   1.5177   0.00897   0.00516  -0.1334  0.5326  0.7836
   7.550   1.5221   0.00898   0.00517  -0.1333  0.5323  0.7838
   7.600   1.5266   0.00899   0.00518  -0.1332  0.5321  0.7840
   7.650   1.5310   0.00900   0.00519  -0.1331  0.5318  0.7842
   7.700   1.5354   0.00900   0.00521  -0.1330  0.5315  0.7843
   7.750   1.5398   0.00901   0.00522  -0.1329  0.5312  0.7845
   7.800   1.5442   0.00902   0.00523  -0.1328  0.5310  0.7847
   7.850   1.5486   0.00902   0.00524  -0.1328  0.5307  0.7848
   7.900   1.5530   0.00904   0.00526  -0.1327  0.5304  0.7850
   7.950   1.5573   0.00904   0.00527  -0.1325  0.5301  0.7852
   8.000   1.5616   0.00905   0.00528  -0.1324  0.5298  0.7853
   8.050   1.5659   0.00906   0.00529  -0.1323  0.5295  0.7855
   8.100   1.5701   0.00907   0.00531  -0.1322  0.5291  0.7857
   8.150   1.5743   0.00908   0.00532  -0.1321  0.5288  0.7858
   8.200   1.5783   0.00910   0.00533  -0.1319  0.5284  0.7860
   8.250   1.5825   0.00911   0.00535  -0.1318  0.5281  0.7862
   8.300   1.5865   0.00913   0.00537  -0.1316  0.5277  0.7863
   8.350   1.5903   0.00915   0.00539  -0.1314  0.5273  0.7865
   8.400   1.5936   0.00917   0.00541  -0.1311  0.5268  0.7867
   8.450   1.5969   0.00919   0.00544  -0.1308  0.5264  0.7868
   8.500   1.6002   0.00922   0.00547  -0.1306  0.5259  0.7870
   8.550   1.6034   0.00925   0.00550  -0.1302  0.5255  0.7872
   8.600   1.6069   0.00928   0.00553  -0.1300  0.5251  0.7873
   8.650   1.6102   0.00931   0.00557  -0.1297  0.5246  0.7875
   8.700   1.6135   0.00935   0.00560  -0.1294  0.5240  0.7877
   8.750   1.6170   0.00939   0.00564  -0.1292  0.5233  0.7879
   8.800   1.6208   0.00942   0.00567  -0.1290  0.5227  0.7880
   8.850   1.6247   0.00946   0.00572  -0.1289  0.5222  0.7882
   8.900   1.6289   0.00950   0.00576  -0.1288  0.5216  0.7883
   8.950   1.6331   0.00954   0.00580  -0.1287  0.5209  0.7885
   9.000   1.6375   0.00958   0.00584  -0.1286  0.5203  0.7886
   9.050   1.6415   0.00961   0.00587  -0.1285  0.5199  0.7888
   9.100   1.6453   0.00962   0.00590  -0.1283  0.5198  0.7889
   9.150   1.6492   0.00964   0.00593  -0.1281  0.5196  0.7891
   9.200   1.6529   0.00966   0.00596  -0.1279  0.5195  0.7893
   9.250   1.6566   0.00969   0.00599  -0.1277  0.5193  0.7894
   9.300   1.6601   0.00971   0.00602  -0.1275  0.5191  0.7896
   9.350   1.6637   0.00974   0.00606  -0.1273  0.5190  0.7897
   9.400   1.6672   0.00977   0.00610  -0.1271  0.5187  0.7899
   9.450   1.6709   0.00980   0.00613  -0.1269  0.5185  0.7901
   9.500   1.6746   0.00982   0.00617  -0.1267  0.5183  0.7902
   9.550   1.6783   0.00985   0.00621  -0.1265  0.5180  0.7904
   9.600   1.6820   0.00988   0.00624  -0.1263  0.5177  0.7905
   9.650   1.6859   0.00991   0.00628  -0.1262  0.5174  0.7907
   9.700   1.6897   0.00994   0.00632  -0.1260  0.5171  0.7909
   9.750   1.6935   0.00997   0.00635  -0.1259  0.5168  0.7910
   9.800   1.6974   0.01000   0.00639  -0.1257  0.5164  0.7912
   9.850   1.7014   0.01003   0.00643  -0.1256  0.5161  0.7913
   9.900   1.7052   0.01005   0.00647  -0.1254  0.5155  0.7915
   9.950   1.7089   0.01009   0.00651  -0.1253  0.5151  0.7917
  10.000   1.7125   0.01012   0.00655  -0.1251  0.5147  0.7918
  10.050   1.7160   0.01016   0.00659  -0.1249  0.5142  0.7920
  10.100   1.7195   0.01020   0.00664  -0.1247  0.5137  0.7922
  10.150   1.7229   0.01023   0.00668  -0.1244  0.5131  0.7923
  10.200   1.7263   0.01027   0.00673  -0.1242  0.5126  0.7925
  10.250   1.7295   0.01032   0.00677  -0.1240  0.5119  0.7927
  10.300   1.7329   0.01036   0.00682  -0.1237  0.5114  0.7928
  10.350   1.7360   0.01041   0.00687  -0.1235  0.5107  0.7930
  10.400   1.7392   0.01045   0.00692  -0.1232  0.5101  0.7932
  10.450   1.7420   0.01051   0.00698  -0.1229  0.5093  0.7934
  10.500   1.7447   0.01056   0.00704  -0.1226  0.5086  0.7935
  10.550   1.7470   0.01063   0.00711  -0.1222  0.5080  0.7937
  10.600   1.7483   0.01072   0.00719  -0.1216  0.5071  0.7939
  10.650   1.7500   0.01080   0.00728  -0.1211  0.5063  0.7941
  10.700   1.7513   0.01089   0.00737  -0.1206  0.5055  0.7943
  10.750   1.7526   0.01099   0.00747  -0.1200  0.5047  0.7945
  10.800   1.7519   0.01113   0.00761  -0.1191  0.5033  0.7947
  10.850   1.7518   0.01127   0.00774  -0.1183  0.5023  0.7950
  10.900   1.7505   0.01143   0.00791  -0.1174  0.5009  0.7952
  10.950   1.7514   0.01155   0.00803  -0.1168  0.4999  0.7954
  11.000   1.7552   0.01161   0.00811  -0.1167  0.4996  0.7955
  11.050   1.7588   0.01166   0.00817  -0.1165  0.4991  0.7957
  11.100   1.7625   0.01172   0.00824  -0.1164  0.4985  0.7959
  11.150   1.7660   0.01178   0.00831  -0.1163  0.4980  0.7960
  11.200   1.7692   0.01185   0.00838  -0.1161  0.4972  0.7962
  11.250   1.7719   0.01193   0.00847  -0.1158  0.4966  0.7964
  11.300   1.7741   0.01202   0.00858  -0.1154  0.4955  0.7966
  11.350   1.7761   0.01213   0.00868  -0.1150  0.4946  0.7967
  11.400   1.7777   0.01224   0.00880  -0.1146  0.4934  0.7969
  11.450   1.7787   0.01237   0.00894  -0.1141  0.4918  0.7971
  11.500   1.7802   0.01250   0.00907  -0.1136  0.4906  0.7973
  11.550   1.7794   0.01269   0.00925  -0.1128  0.4889  0.7975
  11.600   1.7753   0.01299   0.00955  -0.1115  0.4866  0.7977
  11.650   1.7728   0.01325   0.00981  -0.1104  0.4849  0.7979
  11.700   1.7666   0.01365   0.01020  -0.1089  0.4827  0.7981
  11.750   1.7605   0.01407   0.01061  -0.1074  0.4806  0.7983
  11.800   1.7597   0.01431   0.01085  -0.1067  0.4787  0.7985
  11.850   1.7598   0.01452   0.01107  -0.1061  0.4775  0.7987
  11.900   1.7587   0.01478   0.01133  -0.1053  0.4758  0.7988
  11.950   1.7564   0.01509   0.01164  -0.1044  0.4735  0.7990
  12.000   1.7538   0.01542   0.01197  -0.1035  0.4716  0.7992
