  
       XFOIL         Version 6.94
  
 Calculated polar for: 1080                                            
  
 1 1 Reynolds number fixed          Mach number fixed         
  
 xtrf =   1.000 (top)        1.000 (bottom)  
 Mach =   0.000     Re =     2.000 e 6     Ncrit =   9.000
  
  alpha     CL        CD       CDp       CM    Top_Xtr Bot_Xtr
 ------- -------- --------- --------- -------- ------- -------
   6.000   1.4047   0.00857   0.00463  -0.1408  0.5383  0.7828
   6.050   1.4093   0.00857   0.00464  -0.1407  0.5382  0.7829
   6.100   1.4139   0.00857   0.00464  -0.1406  0.5380  0.7830
   6.150   1.4186   0.00858   0.00466  -0.1405  0.5379  0.7832
   6.200   1.4232   0.00858   0.00467  -0.1404  0.5378  0.7833
   6.250   1.4279   0.00859   0.00467  -0.1404  0.5376  0.7835
   6.300   1.4325   0.00859   0.00468  -0.1403  0.5375  0.7836
   6.350   1.4372   0.00860   0.00469  -0.1402  0.5374  0.7837
   6.400   1.4417   0.00860   0.00470  -0.1401  0.5372  0.7839
   6.450   1.4462   0.00861   0.00471  -0.1400  0.5370  0.7840
   6.500   1.4508   0.00861   0.00472  -0.1399  0.5369  0.7842
   6.550   1.4552   0.00862   0.00473  -0.1398  0.5367  0.7843
   6.600   1.4598   0.00863   0.00474  -0.1397  0.5366  0.7844
   6.650   1.4643   0.00864   0.00476  -0.1397  0.5364  0.7846
   6.700   1.4686   0.00864   0.00476  -0.1395  0.5362  0.7847
   6.750   1.4733   0.00865   0.00478  -0.1395  0.5361  0.7849
   6.800   1.4777   0.00865   0.00479  -0.1393  0.5358  0.7850
   6.850   1.4821   0.00866   0.00480  -0.1392  0.5356  0.7852
   6.900   1.4867   0.00867   0.00481  -0.1391  0.5354  0.7853
   6.950   1.4912   0.00867   0.00482  -0.1391  0.5352  0.7854
   7.000   1.4957   0.00868   0.00483  -0.1390  0.5350  0.7856
   7.050   1.5002   0.00868   0.00484  -0.1389  0.5348  0.7857
   7.100   1.5048   0.00869   0.00485  -0.1388  0.5345  0.7859
   7.150   1.5094   0.00870   0.00486  -0.1387  0.5343  0.7860
   7.200   1.5139   0.00870   0.00487  -0.1386  0.5340  0.7862
   7.250   1.5185   0.00871   0.00488  -0.1385  0.5338  0.7863
   7.300   1.5230   0.00871   0.00489  -0.1385  0.5335  0.7864
   7.350   1.5275   0.00872   0.00490  -0.1384  0.5333  0.7866
   7.400   1.5321   0.00873   0.00491  -0.1383  0.5330  0.7867
   7.450   1.5366   0.00873   0.00492  -0.1382  0.5327  0.7868
   7.500   1.5410   0.00874   0.00493  -0.1381  0.5324  0.7870
   7.550   1.5454   0.00874   0.00494  -0.1380  0.5322  0.7871
   7.600   1.5496   0.00875   0.00495  -0.1378  0.5318  0.7873
   7.650   1.5539   0.00876   0.00497  -0.1377  0.5316  0.7874
   7.700   1.5580   0.00876   0.00498  -0.1376  0.5312  0.7875
   7.750   1.5622   0.00877   0.00499  -0.1374  0.5310  0.7877
   7.800   1.5664   0.00878   0.00500  -0.1373  0.5306  0.7878
   7.850   1.5705   0.00878   0.00501  -0.1371  0.5303  0.7880
   7.900   1.5747   0.00879   0.00503  -0.1370  0.5300  0.7881
   7.950   1.5789   0.00880   0.00504  -0.1368  0.5297  0.7883
   8.000   1.5831   0.00881   0.00505  -0.1367  0.5293  0.7884
   8.050   1.5873   0.00883   0.00507  -0.1365  0.5291  0.7885
   8.100   1.5914   0.00884   0.00508  -0.1364  0.5287  0.7887
   8.150   1.5956   0.00885   0.00509  -0.1362  0.5283  0.7888
   8.200   1.5996   0.00886   0.00511  -0.1361  0.5279  0.7890
   8.250   1.6037   0.00888   0.00513  -0.1359  0.5276  0.7891
   8.300   1.6076   0.00890   0.00514  -0.1357  0.5271  0.7893
   8.350   1.6117   0.00891   0.00517  -0.1356  0.5268  0.7894
   8.400   1.6155   0.00893   0.00519  -0.1354  0.5263  0.7896
   8.450   1.6193   0.00896   0.00521  -0.1352  0.5258  0.7897
   8.500   1.6231   0.00898   0.00523  -0.1350  0.5253  0.7898
   8.550   1.6267   0.00901   0.00526  -0.1347  0.5247  0.7900
   8.600   1.6306   0.00903   0.00529  -0.1345  0.5242  0.7901
   8.650   1.6344   0.00906   0.00532  -0.1343  0.5236  0.7903
   8.700   1.6381   0.00910   0.00535  -0.1341  0.5229  0.7904
   8.750   1.6422   0.00913   0.00539  -0.1340  0.5223  0.7906
   8.800   1.6464   0.00917   0.00543  -0.1339  0.5216  0.7907
   8.850   1.6506   0.00921   0.00547  -0.1338  0.5208  0.7909
   8.900   1.6551   0.00925   0.00551  -0.1337  0.5202  0.7910
   8.950   1.6591   0.00927   0.00553  -0.1336  0.5199  0.7911
   9.000   1.6631   0.00928   0.00556  -0.1334  0.5198  0.7913
   9.050   1.6669   0.00930   0.00558  -0.1332  0.5196  0.7914
   9.100   1.6707   0.00932   0.00561  -0.1330  0.5195  0.7916
   9.150   1.6745   0.00934   0.00564  -0.1329  0.5193  0.7918
   9.200   1.6784   0.00936   0.00567  -0.1327  0.5192  0.7919
   9.250   1.6823   0.00938   0.00570  -0.1325  0.5190  0.7921
   9.300   1.6862   0.00940   0.00573  -0.1323  0.5187  0.7922
   9.350   1.6903   0.00942   0.00575  -0.1322  0.5185  0.7924
   9.400   1.6943   0.00944   0.00578  -0.1321  0.5183  0.7925
   9.450   1.6983   0.00946   0.00581  -0.1319  0.5179  0.7927
   9.500   1.7025   0.00948   0.00585  -0.1318  0.5178  0.7928
   9.550   1.7065   0.00950   0.00587  -0.1317  0.5174  0.7930
   9.600   1.7106   0.00952   0.00590  -0.1315  0.5170  0.7931
   9.650   1.7147   0.00955   0.00593  -0.1314  0.5167  0.7933
   9.700   1.7188   0.00957   0.00596  -0.1313  0.5162  0.7934
   9.750   1.7230   0.00959   0.00600  -0.1312  0.5159  0.7936
   9.800   1.7271   0.00961   0.00602  -0.1311  0.5154  0.7938
   9.850   1.7311   0.00964   0.00606  -0.1310  0.5149  0.7939
   9.900   1.7350   0.00966   0.00609  -0.1308  0.5145  0.7941
   9.950   1.7388   0.00969   0.00613  -0.1306  0.5139  0.7942
  10.000   1.7425   0.00972   0.00616  -0.1304  0.5134  0.7944
  10.050   1.7461   0.00975   0.00620  -0.1302  0.5129  0.7946
  10.100   1.7496   0.00979   0.00624  -0.1300  0.5123  0.7947
  10.150   1.7530   0.00982   0.00628  -0.1298  0.5116  0.7949
  10.200   1.7563   0.00986   0.00632  -0.1295  0.5108  0.7951
  10.250   1.7596   0.00990   0.00636  -0.1293  0.5102  0.7952
  10.300   1.7626   0.00994   0.00641  -0.1290  0.5094  0.7954
  10.350   1.7656   0.00999   0.00645  -0.1287  0.5087  0.7956
  10.400   1.7682   0.01004   0.00650  -0.1283  0.5078  0.7957
  10.450   1.7705   0.01010   0.00656  -0.1279  0.5069  0.7959
  10.500   1.7730   0.01015   0.00662  -0.1275  0.5063  0.7961
  10.550   1.7735   0.01024   0.00671  -0.1267  0.5051  0.7963
  10.600   1.7744   0.01033   0.00680  -0.1261  0.5041  0.7965
  10.650   1.7743   0.01044   0.00691  -0.1252  0.5027  0.7967
  10.700   1.7753   0.01054   0.00700  -0.1246  0.5017  0.7969
  10.750   1.7760   0.01065   0.00711  -0.1239  0.5005  0.7970
  10.800   1.7785   0.01072   0.00720  -0.1236  0.4997  0.7972
  10.850   1.7823   0.01076   0.00725  -0.1234  0.4993  0.7974
  10.900   1.7859   0.01081   0.00731  -0.1233  0.4987  0.7975
  10.950   1.7894   0.01086   0.00737  -0.1231  0.4980  0.7976
  11.000   1.7927   0.01092   0.00744  -0.1229  0.4974  0.7978
  11.050   1.7956   0.01098   0.00751  -0.1226  0.4963  0.7979
  11.100   1.7987   0.01104   0.00758  -0.1223  0.4956  0.7981
  11.150   1.8011   0.01112   0.00766  -0.1220  0.4942  0.7982
  11.200   1.8034   0.01121   0.00775  -0.1216  0.4929  0.7984
  11.250   1.8048   0.01131   0.00785  -0.1211  0.4912  0.7985
  11.300   1.8045   0.01146   0.00800  -0.1203  0.4894  0.7987
  11.350   1.8034   0.01163   0.00817  -0.1194  0.4875  0.7989
  11.400   1.8035   0.01178   0.00831  -0.1186  0.4863  0.7990
  11.450   1.7986   0.01207   0.00859  -0.1171  0.4836  0.7992
  11.500   1.7952   0.01233   0.00885  -0.1159  0.4819  0.7994
  11.550   1.7916   0.01262   0.00913  -0.1146  0.4795  0.7995
  11.600   1.7936   0.01273   0.00925  -0.1143  0.4786  0.7996
  11.650   1.7938   0.01291   0.00943  -0.1136  0.4769  0.7997
  11.700   1.7931   0.01311   0.00964  -0.1129  0.4751  0.7999
  11.750   1.7920   0.01334   0.00986  -0.1120  0.4732  0.8000
  11.800   1.7899   0.01360   0.01012  -0.1111  0.4710  0.8004
  11.850   1.7842   0.01400   0.01052  -0.1096  0.4684  0.8011
  11.900   1.7766   0.01450   0.01101  -0.1079  0.4656  0.8017
  11.950   1.7620   0.01531   0.01181  -0.1053  0.4618  0.8026
  12.000   1.7542   0.01588   0.01238  -0.1037  0.4593  0.8034
