  
       XFOIL         Version 6.94
  
 Calculated polar for: 1080                                            
  
 1 1 Reynolds number fixed          Mach number fixed         
  
 xtrf =   1.000 (top)        1.000 (bottom)  
 Mach =   0.000     Re =     2.000 e 6     Ncrit =   9.000
  
  alpha     CL        CD       CDp       CM    Top_Xtr Bot_Xtr
 ------- -------- --------- --------- -------- ------- -------
   6.000   1.3896   0.00828   0.00435  -0.1383  0.5387  0.7849
   6.050   1.3941   0.00828   0.00436  -0.1382  0.5386  0.7850
   6.100   1.3986   0.00828   0.00436  -0.1381  0.5385  0.7852
   6.150   1.4031   0.00828   0.00437  -0.1379  0.5384  0.7853
   6.200   1.4076   0.00828   0.00437  -0.1378  0.5382  0.7854
   6.250   1.4120   0.00828   0.00438  -0.1377  0.5381  0.7856
   6.300   1.4166   0.00829   0.00438  -0.1376  0.5380  0.7857
   6.350   1.4210   0.00828   0.00439  -0.1375  0.5378  0.7858
   6.400   1.4255   0.00829   0.00439  -0.1374  0.5376  0.7860
   6.450   1.4301   0.00829   0.00440  -0.1373  0.5375  0.7861
   6.500   1.4346   0.00829   0.00441  -0.1371  0.5373  0.7862
   6.550   1.4392   0.00829   0.00442  -0.1370  0.5371  0.7864
   6.600   1.4437   0.00830   0.00442  -0.1369  0.5369  0.7865
   6.650   1.4483   0.00830   0.00443  -0.1368  0.5367  0.7866
   6.700   1.4529   0.00830   0.00444  -0.1368  0.5365  0.7868
   6.750   1.4576   0.00831   0.00445  -0.1367  0.5363  0.7869
   6.800   1.4621   0.00831   0.00445  -0.1366  0.5360  0.7870
   6.850   1.4667   0.00831   0.00446  -0.1365  0.5358  0.7871
   6.900   1.4713   0.00832   0.00447  -0.1364  0.5356  0.7873
   6.950   1.4759   0.00832   0.00448  -0.1363  0.5353  0.7874
   7.000   1.4804   0.00832   0.00448  -0.1362  0.5350  0.7875
   7.050   1.4849   0.00833   0.00449  -0.1361  0.5348  0.7877
   7.100   1.4893   0.00833   0.00450  -0.1360  0.5345  0.7878
   7.150   1.4938   0.00834   0.00451  -0.1359  0.5342  0.7879
   7.200   1.4983   0.00834   0.00452  -0.1357  0.5339  0.7881
   7.250   1.5026   0.00834   0.00453  -0.1356  0.5336  0.7882
   7.300   1.5072   0.00835   0.00454  -0.1355  0.5334  0.7883
   7.350   1.5116   0.00836   0.00455  -0.1354  0.5330  0.7885
   7.400   1.5161   0.00836   0.00456  -0.1353  0.5327  0.7886
   7.450   1.5206   0.00837   0.00458  -0.1352  0.5324  0.7887
   7.500   1.5251   0.00838   0.00459  -0.1351  0.5321  0.7889
   7.550   1.5295   0.00838   0.00460  -0.1350  0.5318  0.7890
   7.600   1.5341   0.00839   0.00461  -0.1349  0.5315  0.7891
   7.650   1.5385   0.00839   0.00462  -0.1348  0.5311  0.7893
   7.700   1.5431   0.00840   0.00463  -0.1347  0.5309  0.7894
   7.750   1.5475   0.00841   0.00464  -0.1346  0.5305  0.7895
   7.800   1.5519   0.00842   0.00465  -0.1345  0.5302  0.7897
   7.850   1.5563   0.00842   0.00466  -0.1344  0.5298  0.7898
   7.900   1.5606   0.00843   0.00467  -0.1342  0.5294  0.7899
   7.950   1.5650   0.00844   0.00468  -0.1341  0.5290  0.7901
   8.000   1.5691   0.00845   0.00470  -0.1339  0.5286  0.7902
   8.050   1.5731   0.00847   0.00471  -0.1338  0.5281  0.7904
   8.100   1.5770   0.00848   0.00473  -0.1335  0.5277  0.7905
   8.150   1.5807   0.00849   0.00474  -0.1333  0.5272  0.7906
   8.200   1.5845   0.00851   0.00476  -0.1331  0.5268  0.7908
   8.250   1.5879   0.00853   0.00478  -0.1328  0.5262  0.7910
   8.300   1.5915   0.00855   0.00480  -0.1325  0.5257  0.7911
   8.350   1.5952   0.00857   0.00483  -0.1322  0.5252  0.7913
   8.400   1.5987   0.00860   0.00485  -0.1320  0.5246  0.7914
   8.450   1.6026   0.00862   0.00488  -0.1318  0.5241  0.7916
   8.500   1.6060   0.00865   0.00491  -0.1315  0.5233  0.7917
   8.550   1.6100   0.00868   0.00494  -0.1313  0.5227  0.7919
   8.600   1.6139   0.00872   0.00498  -0.1311  0.5220  0.7920
   8.650   1.6181   0.00875   0.00501  -0.1310  0.5214  0.7922
   8.700   1.6223   0.00879   0.00504  -0.1309  0.5206  0.7923
   8.750   1.6267   0.00882   0.00508  -0.1308  0.5200  0.7925
   8.800   1.6312   0.00883   0.00510  -0.1307  0.5199  0.7926
   8.850   1.6356   0.00884   0.00512  -0.1306  0.5197  0.7928
   8.900   1.6400   0.00885   0.00514  -0.1305  0.5195  0.7929
   8.950   1.6444   0.00886   0.00516  -0.1304  0.5193  0.7930
   9.000   1.6488   0.00888   0.00518  -0.1304  0.5191  0.7932
   9.050   1.6533   0.00889   0.00520  -0.1303  0.5189  0.7933
   9.100   1.6578   0.00891   0.00523  -0.1302  0.5187  0.7935
   9.150   1.6622   0.00892   0.00525  -0.1301  0.5184  0.7936
   9.200   1.6667   0.00893   0.00528  -0.1301  0.5181  0.7938
   9.250   1.6712   0.00895   0.00530  -0.1300  0.5178  0.7939
   9.300   1.6757   0.00897   0.00532  -0.1299  0.5175  0.7941
   9.350   1.6801   0.00898   0.00535  -0.1299  0.5171  0.7942
   9.400   1.6846   0.00900   0.00537  -0.1298  0.5167  0.7944
   9.450   1.6890   0.00901   0.00540  -0.1297  0.5163  0.7945
   9.500   1.6934   0.00903   0.00542  -0.1296  0.5158  0.7947
   9.550   1.6976   0.00905   0.00545  -0.1295  0.5153  0.7948
   9.600   1.7017   0.00907   0.00547  -0.1294  0.5146  0.7950
   9.650   1.7058   0.00909   0.00550  -0.1292  0.5142  0.7952
   9.700   1.7097   0.00911   0.00553  -0.1290  0.5135  0.7953
   9.750   1.7135   0.00913   0.00556  -0.1289  0.5129  0.7955
   9.800   1.7172   0.00916   0.00559  -0.1286  0.5121  0.7956
   9.850   1.7208   0.00919   0.00562  -0.1284  0.5113  0.7958
   9.900   1.7242   0.00922   0.00565  -0.1281  0.5104  0.7960
   9.950   1.7275   0.00925   0.00568  -0.1279  0.5096  0.7961
  10.000   1.7307   0.00928   0.00572  -0.1276  0.5087  0.7963
  10.050   1.7337   0.00932   0.00576  -0.1272  0.5078  0.7964
  10.100   1.7366   0.00937   0.00580  -0.1269  0.5069  0.7966
  10.150   1.7388   0.00942   0.00585  -0.1264  0.5057  0.7968
  10.200   1.7408   0.00948   0.00591  -0.1259  0.5046  0.7969
  10.250   1.7417   0.00955   0.00598  -0.1252  0.5033  0.7971
  10.300   1.7428   0.00963   0.00606  -0.1245  0.5022  0.7973
  10.350   1.7433   0.00972   0.00614  -0.1237  0.5008  0.7975
  10.400   1.7455   0.00978   0.00621  -0.1233  0.4997  0.7977
  10.450   1.7498   0.00981   0.00625  -0.1232  0.4993  0.7978
  10.500   1.7538   0.00985   0.00629  -0.1231  0.4987  0.7979
  10.600   1.7616   0.00992   0.00639  -0.1228  0.4971  0.7982
  10.650   1.7651   0.00996   0.00644  -0.1226  0.4960  0.7983
  10.700   1.7685   0.01001   0.00650  -0.1223  0.4950  0.7985
  10.750   1.7713   0.01007   0.00656  -0.1220  0.4938  0.7986
  10.800   1.7735   0.01014   0.00663  -0.1216  0.4924  0.7987
  10.850   1.7748   0.01022   0.00671  -0.1210  0.4907  0.7989
  10.900   1.7757   0.01032   0.00681  -0.1203  0.4890  0.7990
  10.950   1.7759   0.01044   0.00692  -0.1195  0.4871  0.7992
  11.000   1.7745   0.01059   0.00707  -0.1185  0.4847  0.7993
  11.050   1.7716   0.01079   0.00725  -0.1172  0.4824  0.7995
  11.100   1.7693   0.01098   0.00744  -0.1160  0.4805  0.7996
  11.150   1.7697   0.01111   0.00757  -0.1153  0.4783  0.7997
  11.200   1.7717   0.01121   0.00767  -0.1149  0.4770  0.7998
  11.250   1.7719   0.01135   0.00781  -0.1142  0.4747  0.7999
  11.300   1.7698   0.01155   0.00801  -0.1131  0.4720  0.8003
  11.350   1.7663   0.01180   0.00825  -0.1118  0.4689  0.8009
  11.400   1.7639   0.01203   0.00848  -0.1107  0.4667  0.8015
  11.450   1.7520   0.01256   0.00899  -0.1081  0.4625  0.8024
  11.500   1.7482   0.01286   0.00929  -0.1068  0.4604  0.8030
  11.550   1.7460   0.01312   0.00955  -0.1058  0.4583  0.8036
  11.600   1.7438   0.01339   0.00982  -0.1049  0.4559  0.8042
  11.650   1.7406   0.01370   0.01013  -0.1037  0.4533  0.8048
  11.700   1.7360   0.01408   0.01051  -0.1025  0.4510  0.8054
  11.750   1.7270   0.01464   0.01106  -0.1006  0.4475  0.8061
  11.800   1.7140   0.01541   0.01182  -0.0982  0.4438  0.8068
  11.850   1.7040   0.01609   0.01251  -0.0964  0.4412  0.8074
  11.900   1.6986   0.01660   0.01301  -0.0951  0.4388  0.8080
  11.950   1.6947   0.01704   0.01347  -0.0941  0.4368  0.8085
  12.000   1.6902   0.01751   0.01394  -0.0930  0.4344  0.8089
