  
       XFOIL         Version 6.94
  
 Calculated polar for: 1080                                            
  
 1 1 Reynolds number fixed          Mach number fixed         
  
 xtrf =   1.000 (top)        1.000 (bottom)  
 Mach =   0.000     Re =     2.000 e 6     Ncrit =   9.000
  
  alpha     CL        CD       CDp       CM    Top_Xtr Bot_Xtr
 ------- -------- --------- --------- -------- ------- -------
   6.000   1.4146   0.00848   0.00454  -0.1429  0.5383  0.7845
   6.050   1.4192   0.00848   0.00455  -0.1428  0.5382  0.7847
   6.100   1.4238   0.00849   0.00456  -0.1427  0.5381  0.7848
   6.150   1.4284   0.00849   0.00458  -0.1427  0.5380  0.7849
   6.200   1.4329   0.00849   0.00458  -0.1425  0.5379  0.7851
   6.250   1.4375   0.00850   0.00459  -0.1425  0.5377  0.7852
   6.300   1.4422   0.00850   0.00460  -0.1424  0.5376  0.7853
   6.350   1.4468   0.00851   0.00461  -0.1423  0.5374  0.7854
   6.400   1.4514   0.00851   0.00462  -0.1422  0.5373  0.7856
   6.450   1.4561   0.00852   0.00463  -0.1421  0.5371  0.7857
   6.500   1.4607   0.00852   0.00464  -0.1421  0.5370  0.7858
   6.550   1.4653   0.00853   0.00464  -0.1420  0.5368  0.7859
   6.600   1.4701   0.00854   0.00466  -0.1419  0.5367  0.7861
   6.650   1.4746   0.00854   0.00467  -0.1418  0.5365  0.7862
   6.700   1.4793   0.00855   0.00468  -0.1418  0.5363  0.7863
   6.750   1.4838   0.00855   0.00469  -0.1417  0.5361  0.7865
   6.800   1.4882   0.00855   0.00469  -0.1416  0.5359  0.7866
   6.850   1.4927   0.00856   0.00470  -0.1414  0.5356  0.7867
   6.900   1.4972   0.00857   0.00471  -0.1413  0.5354  0.7868
   6.950   1.5016   0.00857   0.00472  -0.1412  0.5352  0.7870
   7.000   1.5061   0.00858   0.00473  -0.1411  0.5350  0.7871
   7.050   1.5105   0.00858   0.00474  -0.1410  0.5347  0.7872
   7.100   1.5151   0.00859   0.00475  -0.1409  0.5345  0.7874
   7.150   1.5195   0.00859   0.00476  -0.1408  0.5342  0.7875
   7.200   1.5240   0.00860   0.00477  -0.1407  0.5340  0.7876
   7.250   1.5285   0.00861   0.00478  -0.1406  0.5337  0.7878
   7.300   1.5330   0.00861   0.00479  -0.1405  0.5335  0.7879
   7.350   1.5375   0.00862   0.00480  -0.1404  0.5332  0.7880
   7.400   1.5420   0.00862   0.00481  -0.1403  0.5329  0.7881
   7.450   1.5464   0.00862   0.00481  -0.1402  0.5326  0.7883
   7.500   1.5510   0.00863   0.00483  -0.1401  0.5323  0.7884
   7.550   1.5554   0.00864   0.00483  -0.1400  0.5320  0.7885
   7.600   1.5599   0.00864   0.00485  -0.1399  0.5317  0.7887
   7.650   1.5645   0.00865   0.00486  -0.1399  0.5314  0.7888
   7.700   1.5690   0.00866   0.00488  -0.1398  0.5311  0.7889
   7.750   1.5734   0.00866   0.00489  -0.1397  0.5308  0.7890
   7.800   1.5777   0.00867   0.00489  -0.1396  0.5305  0.7892
   7.850   1.5820   0.00867   0.00491  -0.1394  0.5302  0.7893
   7.900   1.5862   0.00868   0.00492  -0.1393  0.5299  0.7895
   7.950   1.5903   0.00870   0.00493  -0.1391  0.5295  0.7896
   8.000   1.5944   0.00871   0.00495  -0.1389  0.5292  0.7897
   8.050   1.5984   0.00872   0.00496  -0.1388  0.5289  0.7899
   8.100   1.6023   0.00873   0.00497  -0.1386  0.5284  0.7900
   8.150   1.6063   0.00875   0.00499  -0.1384  0.5281  0.7901
   8.200   1.6102   0.00876   0.00501  -0.1382  0.5277  0.7903
   8.250   1.6140   0.00877   0.00502  -0.1380  0.5273  0.7904
   8.300   1.6180   0.00879   0.00504  -0.1378  0.5269  0.7906
   8.350   1.6217   0.00881   0.00506  -0.1375  0.5264  0.7907
   8.400   1.6255   0.00883   0.00508  -0.1373  0.5259  0.7909
   8.450   1.6291   0.00885   0.00511  -0.1371  0.5254  0.7910
   8.500   1.6328   0.00888   0.00513  -0.1369  0.5248  0.7912
   8.550   1.6366   0.00890   0.00516  -0.1366  0.5242  0.7913
   8.600   1.6403   0.00893   0.00519  -0.1364  0.5235  0.7915
   8.650   1.6442   0.00897   0.00522  -0.1362  0.5229  0.7916
   8.700   1.6482   0.00900   0.00526  -0.1361  0.5222  0.7917
   8.750   1.6524   0.00903   0.00529  -0.1360  0.5215  0.7919
   8.800   1.6568   0.00907   0.00533  -0.1359  0.5209  0.7920
   8.850   1.6612   0.00911   0.00537  -0.1358  0.5202  0.7922
   8.900   1.6656   0.00913   0.00539  -0.1358  0.5199  0.7923
   8.950   1.6699   0.00914   0.00542  -0.1356  0.5198  0.7925
   9.000   1.6742   0.00916   0.00544  -0.1355  0.5197  0.7926
   9.050   1.6785   0.00917   0.00546  -0.1354  0.5195  0.7927
   9.100   1.6828   0.00918   0.00548  -0.1353  0.5193  0.7929
   9.150   1.6871   0.00920   0.00551  -0.1352  0.5191  0.7930
   9.200   1.6914   0.00921   0.00553  -0.1351  0.5189  0.7932
   9.250   1.6956   0.00923   0.00556  -0.1350  0.5188  0.7933
   9.300   1.6996   0.00925   0.00558  -0.1349  0.5185  0.7935
   9.350   1.7037   0.00927   0.00561  -0.1347  0.5183  0.7936
   9.400   1.7076   0.00929   0.00564  -0.1346  0.5179  0.7938
   9.450   1.7116   0.00931   0.00567  -0.1344  0.5176  0.7940
   9.500   1.7155   0.00933   0.00570  -0.1343  0.5173  0.7941
   9.550   1.7195   0.00935   0.00573  -0.1341  0.5169  0.7943
   9.600   1.7235   0.00937   0.00576  -0.1340  0.5165  0.7944
   9.650   1.7276   0.00939   0.00579  -0.1338  0.5161  0.7946
   9.700   1.7317   0.00941   0.00582  -0.1337  0.5157  0.7947
   9.750   1.7358   0.00943   0.00585  -0.1336  0.5152  0.7949
   9.800   1.7400   0.00946   0.00588  -0.1335  0.5148  0.7950
   9.850   1.7441   0.00948   0.00591  -0.1334  0.5143  0.7952
   9.900   1.7482   0.00950   0.00594  -0.1332  0.5138  0.7953
   9.950   1.7523   0.00952   0.00597  -0.1331  0.5132  0.7955
  10.000   1.7562   0.00955   0.00600  -0.1329  0.5125  0.7956
  10.050   1.7601   0.00958   0.00603  -0.1328  0.5120  0.7958
  10.100   1.7638   0.00961   0.00606  -0.1326  0.5112  0.7959
  10.150   1.7672   0.00964   0.00610  -0.1324  0.5105  0.7961
  10.200   1.7703   0.00968   0.00614  -0.1321  0.5097  0.7963
  10.250   1.7732   0.00972   0.00618  -0.1317  0.5089  0.7964
  10.300   1.7754   0.00977   0.00623  -0.1313  0.5080  0.7966
  10.350   1.7778   0.00982   0.00629  -0.1308  0.5071  0.7968
  10.400   1.7797   0.00989   0.00635  -0.1303  0.5061  0.7969
  10.450   1.7815   0.00995   0.00641  -0.1298  0.5051  0.7971
  10.500   1.7828   0.01003   0.00649  -0.1292  0.5040  0.7973
  10.550   1.7839   0.01011   0.00657  -0.1285  0.5028  0.7975
  10.600   1.7844   0.01021   0.00667  -0.1278  0.5016  0.7976
  10.650   1.7843   0.01032   0.00677  -0.1269  0.5002  0.7978
  10.700   1.7876   0.01037   0.00685  -0.1267  0.4997  0.7980
  10.750   1.7916   0.01041   0.00689  -0.1266  0.4991  0.7981
  10.800   1.7954   0.01045   0.00694  -0.1265  0.4987  0.7982
  10.850   1.7992   0.01049   0.00699  -0.1263  0.4979  0.7983
  10.900   1.8027   0.01054   0.00705  -0.1261  0.4973  0.7985
  10.950   1.8060   0.01059   0.00711  -0.1259  0.4963  0.7986
  11.000   1.8091   0.01065   0.00717  -0.1256  0.4951  0.7987
  11.050   1.8119   0.01072   0.00724  -0.1253  0.4939  0.7989
  11.100   1.8136   0.01080   0.00733  -0.1248  0.4922  0.7990
  11.150   1.8145   0.01091   0.00744  -0.1242  0.4906  0.7991
  11.200   1.8151   0.01103   0.00755  -0.1235  0.4891  0.7993
  11.250   1.8154   0.01116   0.00768  -0.1228  0.4875  0.7994
  11.300   1.8140   0.01133   0.00785  -0.1218  0.4855  0.7995
  11.350   1.8105   0.01157   0.00807  -0.1205  0.4832  0.7997
  11.400   1.8067   0.01182   0.00832  -0.1191  0.4812  0.7998
  11.450   1.8061   0.01200   0.00850  -0.1183  0.4795  0.7999
  11.550   1.8088   0.01224   0.00876  -0.1173  0.4769  0.8007
  11.600   1.8081   0.01243   0.00894  -0.1165  0.4749  0.8012
  11.650   1.8065   0.01265   0.00916  -0.1156  0.4726  0.8018
  11.700   1.8045   0.01289   0.00940  -0.1146  0.4702  0.8023
  11.750   1.7982   0.01328   0.00979  -0.1130  0.4675  0.8030
  11.800   1.7930   0.01365   0.01016  -0.1116  0.4651  0.8037
  11.850   1.7807   0.01431   0.01081  -0.1092  0.4617  0.8045
  11.900   1.7751   0.01475   0.01125  -0.1078  0.4592  0.8051
  11.950   1.7725   0.01508   0.01158  -0.1068  0.4573  0.8056
  12.000   1.7694   0.01544   0.01195  -0.1058  0.4550  0.8062
