  
       XFOIL         Version 6.94
  
 Calculated polar for: 1080                                            
  
 1 1 Reynolds number fixed          Mach number fixed         
  
 xtrf =   1.000 (top)        1.000 (bottom)  
 Mach =   0.000     Re =     2.000 e 6     Ncrit =   9.000
  
  alpha     CL        CD       CDp       CM    Top_Xtr Bot_Xtr
 ------- -------- --------- --------- -------- ------- -------
   6.000   1.3360   0.00790   0.00397  -0.1284  0.5392  0.7852
   6.050   1.3408   0.00789   0.00397  -0.1283  0.5390  0.7853
   6.100   1.3455   0.00789   0.00397  -0.1282  0.5389  0.7855
   6.150   1.3500   0.00788   0.00397  -0.1281  0.5388  0.7857
   6.200   1.3545   0.00788   0.00397  -0.1279  0.5386  0.7859
   6.250   1.3588   0.00787   0.00397  -0.1278  0.5384  0.7860
   6.300   1.3631   0.00786   0.00397  -0.1276  0.5382  0.7862
   6.350   1.3675   0.00786   0.00397  -0.1274  0.5381  0.7864
   6.400   1.3717   0.00785   0.00397  -0.1272  0.5378  0.7865
   6.450   1.3761   0.00785   0.00397  -0.1271  0.5377  0.7867
   6.500   1.3805   0.00784   0.00397  -0.1269  0.5374  0.7868
   6.550   1.3849   0.00784   0.00397  -0.1268  0.5372  0.7870
   6.600   1.3894   0.00784   0.00398  -0.1266  0.5370  0.7871
   6.650   1.3939   0.00784   0.00398  -0.1265  0.5367  0.7873
   6.700   1.3985   0.00784   0.00399  -0.1264  0.5365  0.7874
   6.750   1.4029   0.00784   0.00399  -0.1263  0.5362  0.7876
   6.800   1.4076   0.00784   0.00400  -0.1262  0.5359  0.7877
   6.850   1.4122   0.00785   0.00401  -0.1261  0.5356  0.7878
   6.900   1.4168   0.00785   0.00402  -0.1260  0.5353  0.7880
   6.950   1.4215   0.00785   0.00403  -0.1259  0.5351  0.7881
   7.000   1.4261   0.00786   0.00404  -0.1258  0.5347  0.7882
   7.050   1.4308   0.00786   0.00404  -0.1257  0.5344  0.7884
   7.100   1.4355   0.00787   0.00405  -0.1256  0.5341  0.7885
   7.150   1.4401   0.00787   0.00406  -0.1255  0.5337  0.7887
   7.200   1.4447   0.00787   0.00408  -0.1254  0.5333  0.7888
   7.250   1.4494   0.00787   0.00409  -0.1254  0.5330  0.7889
   7.300   1.4541   0.00788   0.00409  -0.1253  0.5326  0.7891
   7.350   1.4587   0.00788   0.00410  -0.1252  0.5322  0.7892
   7.400   1.4634   0.00789   0.00411  -0.1251  0.5319  0.7893
   7.450   1.4678   0.00789   0.00412  -0.1250  0.5315  0.7895
   7.500   1.4723   0.00790   0.00413  -0.1249  0.5311  0.7896
   7.550   1.4768   0.00791   0.00414  -0.1248  0.5307  0.7898
   7.600   1.4811   0.00791   0.00415  -0.1246  0.5302  0.7899
   7.650   1.4855   0.00793   0.00417  -0.1245  0.5299  0.7901
   7.700   1.4897   0.00793   0.00418  -0.1243  0.5294  0.7902
   7.750   1.4940   0.00795   0.00419  -0.1241  0.5289  0.7904
   7.800   1.4983   0.00796   0.00420  -0.1240  0.5285  0.7905
   7.850   1.5024   0.00797   0.00422  -0.1238  0.5280  0.7907
   7.900   1.5064   0.00798   0.00423  -0.1236  0.5274  0.7908
   7.950   1.5107   0.00800   0.00425  -0.1235  0.5271  0.7910
   8.000   1.5144   0.00801   0.00426  -0.1232  0.5264  0.7911
   8.050   1.5184   0.00803   0.00428  -0.1230  0.5259  0.7913
   8.100   1.5221   0.00805   0.00430  -0.1227  0.5252  0.7914
   8.150   1.5261   0.00807   0.00433  -0.1225  0.5247  0.7916
   8.200   1.5297   0.00810   0.00435  -0.1223  0.5239  0.7918
   8.250   1.5334   0.00812   0.00438  -0.1220  0.5232  0.7919
   8.300   1.5374   0.00815   0.00440  -0.1218  0.5225  0.7921
   8.350   1.5412   0.00818   0.00444  -0.1216  0.5218  0.7922
   8.400   1.5450   0.00821   0.00447  -0.1213  0.5211  0.7924
   8.450   1.5491   0.00825   0.00450  -0.1212  0.5203  0.7926
   8.500   1.5534   0.00827   0.00453  -0.1210  0.5199  0.7927
   8.550   1.5578   0.00828   0.00455  -0.1209  0.5197  0.7929
   8.600   1.5623   0.00829   0.00457  -0.1208  0.5195  0.7930
   8.650   1.5667   0.00830   0.00459  -0.1207  0.5192  0.7932
   8.700   1.5712   0.00830   0.00461  -0.1206  0.5189  0.7933
   8.750   1.5758   0.00832   0.00463  -0.1205  0.5186  0.7935
   8.800   1.5803   0.00833   0.00465  -0.1205  0.5183  0.7937
   8.850   1.5849   0.00834   0.00466  -0.1204  0.5178  0.7938
   8.900   1.5895   0.00835   0.00468  -0.1203  0.5174  0.7940
   8.950   1.5942   0.00836   0.00471  -0.1203  0.5170  0.7941
   9.000   1.5988   0.00837   0.00473  -0.1202  0.5164  0.7943
   9.050   1.6034   0.00839   0.00475  -0.1201  0.5158  0.7944
   9.100   1.6080   0.00840   0.00477  -0.1201  0.5152  0.7946
   9.150   1.6125   0.00841   0.00479  -0.1200  0.5146  0.7947
   9.200   1.6169   0.00843   0.00481  -0.1199  0.5137  0.7949
   9.250   1.6212   0.00845   0.00483  -0.1198  0.5129  0.7950
   9.300   1.6255   0.00847   0.00485  -0.1196  0.5121  0.7952
   9.350   1.6293   0.00849   0.00487  -0.1194  0.5109  0.7954
   9.400   1.6331   0.00851   0.00490  -0.1192  0.5098  0.7955
   9.450   1.6368   0.00854   0.00492  -0.1190  0.5088  0.7957
   9.500   1.6403   0.00857   0.00495  -0.1187  0.5078  0.7959
   9.550   1.6435   0.00860   0.00499  -0.1184  0.5067  0.7960
   9.600   1.6465   0.00864   0.00502  -0.1180  0.5056  0.7962
   9.650   1.6491   0.00869   0.00506  -0.1176  0.5043  0.7964
   9.700   1.6514   0.00874   0.00511  -0.1171  0.5030  0.7966
   9.750   1.6532   0.00879   0.00517  -0.1165  0.5018  0.7967
   9.800   1.6546   0.00886   0.00523  -0.1158  0.5004  0.7969
   9.850   1.6581   0.00889   0.00527  -0.1156  0.4995  0.7971
   9.900   1.6624   0.00892   0.00530  -0.1155  0.4989  0.7972
   9.950   1.6664   0.00894   0.00534  -0.1153  0.4981  0.7974
  10.000   1.6703   0.00897   0.00537  -0.1151  0.4970  0.7975
  10.050   1.6737   0.00901   0.00541  -0.1149  0.4954  0.7977
  10.100   1.6772   0.00905   0.00546  -0.1146  0.4943  0.7978
  10.150   1.6798   0.00910   0.00551  -0.1142  0.4922  0.7980
  10.200   1.6813   0.00918   0.00557  -0.1136  0.4895  0.7981
  10.250   1.6816   0.00927   0.00565  -0.1127  0.4867  0.7983
  10.300   1.6820   0.00936   0.00574  -0.1119  0.4848  0.7985
  10.350   1.6809   0.00949   0.00585  -0.1108  0.4825  0.7987
  10.400   1.6790   0.00963   0.00599  -0.1096  0.4795  0.7989
  10.450   1.6805   0.00972   0.00608  -0.1090  0.4770  0.7990
  10.500   1.6822   0.00980   0.00617  -0.1085  0.4749  0.7991
  10.550   1.6833   0.00990   0.00626  -0.1078  0.4726  0.7993
  10.600   1.6812   0.01007   0.00642  -0.1066  0.4692  0.7994
  10.650   1.6794   0.01023   0.00657  -0.1055  0.4667  0.7996
  10.700   1.6752   0.01046   0.00678  -0.1039  0.4633  0.7997
  10.750   1.6706   0.01071   0.00701  -0.1024  0.4600  0.7999
  10.850   1.6706   0.01098   0.00729  -0.1008  0.4558  0.8006
  10.900   1.6693   0.01117   0.00747  -0.0998  0.4529  0.8011
  10.950   1.6661   0.01140   0.00770  -0.0985  0.4500  0.8018
  11.000   1.6607   0.01171   0.00799  -0.0969  0.4468  0.8025
  11.050   1.6556   0.01202   0.00830  -0.0954  0.4440  0.8032
  11.100   1.6479   0.01243   0.00871  -0.0935  0.4406  0.8039
  11.150   1.6468   0.01265   0.00892  -0.0926  0.4385  0.8045
  11.200   1.6445   0.01291   0.00918  -0.0916  0.4361  0.8050
  11.250   1.6413   0.01321   0.00948  -0.0904  0.4334  0.8056
  11.300   1.6356   0.01361   0.00988  -0.0889  0.4300  0.8062
  11.350   1.6294   0.01405   0.01032  -0.0874  0.4273  0.8069
  11.400   1.6225   0.01454   0.01081  -0.0858  0.4247  0.8075
  11.450   1.6119   0.01521   0.01147  -0.0838  0.4211  0.8081
  11.500   1.6073   0.01565   0.01191  -0.0826  0.4189  0.8087
  11.550   1.6045   0.01603   0.01229  -0.0817  0.4166  0.8091
  11.600   1.6027   0.01636   0.01263  -0.0809  0.4149  0.8095
  11.650   1.5947   0.01700   0.01327  -0.0793  0.4115  0.8101
  11.700   1.5869   0.01764   0.01391  -0.0779  0.4086  0.8106
  11.750   1.5796   0.01828   0.01455  -0.0765  0.4064  0.8112
  11.800   1.5677   0.01917   0.01544  -0.0746  0.4034  0.8117
  11.850   1.5581   0.01996   0.01622  -0.0729  0.4003  0.8123
  11.900   1.5528   0.02054   0.01680  -0.0719  0.3980  0.8127
  11.950   1.5494   0.02100   0.01727  -0.0710  0.3960  0.8131
  12.000   1.5453   0.02150   0.01777  -0.0700  0.3937  0.8136
