  
       XFOIL         Version 6.94
  
 Calculated polar for: 1080                                            
  
 1 1 Reynolds number fixed          Mach number fixed         
  
 xtrf =   1.000 (top)        1.000 (bottom)  
 Mach =   0.000     Re =     2.000 e 6     Ncrit =   9.000
  
  alpha     CL        CD       CDp       CM    Top_Xtr Bot_Xtr
 ------- -------- --------- --------- -------- ------- -------
   6.000   1.3034   0.00815   0.00423  -0.1213  0.5391  0.7794
   6.050   1.3079   0.00815   0.00423  -0.1211  0.5390  0.7795
   6.100   1.3124   0.00815   0.00424  -0.1210  0.5389  0.7795
   6.150   1.3170   0.00816   0.00424  -0.1209  0.5388  0.7796
   6.200   1.3216   0.00816   0.00425  -0.1208  0.5387  0.7796
   6.250   1.3261   0.00816   0.00426  -0.1207  0.5385  0.7797
   6.300   1.3307   0.00816   0.00426  -0.1206  0.5384  0.7797
   6.350   1.3351   0.00816   0.00427  -0.1204  0.5382  0.7797
   6.400   1.3396   0.00817   0.00427  -0.1203  0.5380  0.7798
   6.450   1.3441   0.00817   0.00428  -0.1202  0.5379  0.7798
   6.500   1.3485   0.00818   0.00429  -0.1201  0.5377  0.7799
   6.550   1.3530   0.00818   0.00430  -0.1200  0.5375  0.7799
   6.600   1.3573   0.00819   0.00431  -0.1198  0.5373  0.7799
   6.650   1.3618   0.00819   0.00432  -0.1197  0.5371  0.7800
   6.700   1.3661   0.00819   0.00432  -0.1195  0.5368  0.7800
   6.750   1.3706   0.00820   0.00433  -0.1194  0.5366  0.7802
   6.800   1.3750   0.00820   0.00434  -0.1193  0.5364  0.7804
   6.850   1.3796   0.00820   0.00434  -0.1192  0.5362  0.7806
   6.900   1.3841   0.00820   0.00435  -0.1191  0.5359  0.7808
   6.950   1.3886   0.00820   0.00435  -0.1190  0.5356  0.7810
   7.000   1.3931   0.00821   0.00436  -0.1189  0.5353  0.7812
   7.050   1.3977   0.00821   0.00437  -0.1188  0.5350  0.7814
   7.100   1.4021   0.00821   0.00437  -0.1187  0.5347  0.7816
   7.150   1.4068   0.00822   0.00438  -0.1186  0.5344  0.7818
   7.200   1.4114   0.00822   0.00439  -0.1185  0.5342  0.7821
   7.250   1.4159   0.00822   0.00440  -0.1184  0.5339  0.7823
   7.300   1.4205   0.00823   0.00442  -0.1183  0.5335  0.7826
   7.350   1.4250   0.00823   0.00442  -0.1182  0.5332  0.7828
   7.400   1.4295   0.00824   0.00443  -0.1181  0.5329  0.7830
   7.450   1.4340   0.00824   0.00445  -0.1180  0.5326  0.7833
   7.500   1.4383   0.00825   0.00446  -0.1179  0.5322  0.7835
   7.550   1.4426   0.00826   0.00447  -0.1178  0.5319  0.7838
   7.600   1.4470   0.00826   0.00448  -0.1176  0.5316  0.7840
   7.650   1.4510   0.00827   0.00449  -0.1174  0.5311  0.7842
   7.700   1.4553   0.00828   0.00450  -0.1173  0.5308  0.7845
   7.750   1.4595   0.00829   0.00451  -0.1171  0.5304  0.7847
   7.800   1.4637   0.00830   0.00453  -0.1170  0.5300  0.7849
   7.850   1.4678   0.00830   0.00454  -0.1168  0.5296  0.7851
   7.900   1.4719   0.00832   0.00455  -0.1166  0.5291  0.7853
   7.950   1.4761   0.00833   0.00456  -0.1165  0.5287  0.7855
   8.000   1.4799   0.00834   0.00458  -0.1163  0.5281  0.7858
   8.050   1.4842   0.00835   0.00460  -0.1161  0.5278  0.7859
   8.100   1.4881   0.00837   0.00461  -0.1159  0.5273  0.7861
   8.150   1.4918   0.00838   0.00463  -0.1157  0.5267  0.7863
   8.200   1.4957   0.00840   0.00465  -0.1155  0.5262  0.7865
   8.250   1.4996   0.00843   0.00467  -0.1153  0.5258  0.7867
   8.300   1.5031   0.00845   0.00469  -0.1150  0.5251  0.7869
   8.350   1.5070   0.00847   0.00472  -0.1148  0.5246  0.7871
   8.400   1.5105   0.00850   0.00475  -0.1145  0.5239  0.7873
   8.450   1.5142   0.00853   0.00478  -0.1143  0.5232  0.7874
   8.500   1.5180   0.00856   0.00481  -0.1141  0.5225  0.7876
   8.550   1.5220   0.00859   0.00485  -0.1139  0.5218  0.7878
   8.600   1.5260   0.00863   0.00488  -0.1137  0.5211  0.7880
   8.650   1.5302   0.00866   0.00491  -0.1136  0.5203  0.7881
   8.700   1.5346   0.00869   0.00494  -0.1135  0.5199  0.7883
   8.750   1.5388   0.00870   0.00496  -0.1134  0.5197  0.7884
   8.800   1.5431   0.00872   0.00499  -0.1133  0.5196  0.7886
   8.850   1.5473   0.00873   0.00501  -0.1131  0.5194  0.7888
   8.900   1.5513   0.00874   0.00504  -0.1130  0.5191  0.7889
   8.950   1.5555   0.00876   0.00507  -0.1128  0.5189  0.7891
   9.000   1.5596   0.00878   0.00509  -0.1127  0.5186  0.7893
   9.050   1.5637   0.00880   0.00512  -0.1125  0.5183  0.7895
   9.100   1.5679   0.00882   0.00515  -0.1124  0.5180  0.7896
   9.150   1.5721   0.00884   0.00517  -0.1123  0.5177  0.7898
   9.200   1.5764   0.00885   0.00520  -0.1122  0.5173  0.7900
   9.250   1.5806   0.00887   0.00523  -0.1120  0.5168  0.7901
   9.300   1.5849   0.00889   0.00526  -0.1119  0.5165  0.7903
   9.350   1.5892   0.00891   0.00528  -0.1118  0.5159  0.7904
   9.400   1.5935   0.00893   0.00530  -0.1117  0.5152  0.7906
   9.450   1.5978   0.00895   0.00533  -0.1116  0.5149  0.7908
   9.500   1.6020   0.00897   0.00536  -0.1115  0.5142  0.7909
   9.550   1.6060   0.00899   0.00538  -0.1113  0.5132  0.7911
   9.600   1.6100   0.00901   0.00541  -0.1112  0.5126  0.7913
   9.650   1.6139   0.00904   0.00545  -0.1110  0.5119  0.7915
   9.700   1.6173   0.00907   0.00548  -0.1108  0.5109  0.7916
   9.750   1.6205   0.00911   0.00552  -0.1105  0.5100  0.7918
   9.800   1.6233   0.00915   0.00556  -0.1101  0.5092  0.7920
   9.850   1.6257   0.00920   0.00560  -0.1096  0.5081  0.7922
   9.900   1.6281   0.00925   0.00565  -0.1092  0.5071  0.7924
   9.950   1.6302   0.00930   0.00571  -0.1087  0.5061  0.7926
  10.000   1.6323   0.00936   0.00577  -0.1082  0.5051  0.7928
  10.050   1.6326   0.00945   0.00585  -0.1074  0.5034  0.7930
  10.100   1.6342   0.00952   0.00592  -0.1068  0.5023  0.7933
  10.150   1.6346   0.00962   0.00601  -0.1060  0.5009  0.7935
  10.200   1.6361   0.00969   0.00609  -0.1055  0.4999  0.7937
  10.250   1.6402   0.00973   0.00613  -0.1053  0.4991  0.7939
  10.300   1.6440   0.00977   0.00618  -0.1052  0.4988  0.7940
  10.350   1.6477   0.00981   0.00623  -0.1050  0.4979  0.7942
  10.400   1.6511   0.00985   0.00628  -0.1048  0.4966  0.7944
  10.450   1.6547   0.00990   0.00633  -0.1046  0.4962  0.7946
  10.500   1.6575   0.00996   0.00639  -0.1042  0.4946  0.7948
  10.550   1.6601   0.01002   0.00647  -0.1039  0.4931  0.7950
  10.600   1.6623   0.01009   0.00655  -0.1034  0.4915  0.7952
  10.650   1.6638   0.01018   0.00664  -0.1029  0.4900  0.7954
  10.700   1.6634   0.01031   0.00676  -0.1020  0.4880  0.7956
  10.750   1.6628   0.01045   0.00689  -0.1011  0.4861  0.7959
  10.800   1.6612   0.01062   0.00705  -0.1000  0.4839  0.7961
  10.850   1.6581   0.01083   0.00725  -0.0988  0.4816  0.7964
  10.900   1.6558   0.01103   0.00745  -0.0976  0.4792  0.7966
  10.950   1.6580   0.01112   0.00754  -0.0972  0.4781  0.7968
  11.000   1.6590   0.01124   0.00767  -0.0966  0.4762  0.7970
  11.050   1.6584   0.01141   0.00783  -0.0958  0.4735  0.7972
  11.100   1.6569   0.01161   0.00803  -0.0948  0.4712  0.7974
  11.150   1.6517   0.01192   0.00833  -0.0933  0.4678  0.7977
  11.200   1.6485   0.01219   0.00859  -0.0920  0.4655  0.7979
  11.250   1.6398   0.01264   0.00903  -0.0900  0.4622  0.7982
  11.300   1.6344   0.01301   0.00938  -0.0886  0.4591  0.7984
  11.350   1.6321   0.01328   0.00966  -0.0876  0.4568  0.7986
  11.400   1.6307   0.01353   0.00990  -0.0867  0.4549  0.7988
  11.450   1.6289   0.01380   0.01017  -0.0858  0.4527  0.7990
  11.500   1.6203   0.01433   0.01070  -0.0840  0.4491  0.7992
  11.550   1.6140   0.01480   0.01116  -0.0825  0.4465  0.7994
  11.600   1.5988   0.01566   0.01200  -0.0799  0.4423  0.7996
  11.650   1.5893   0.01632   0.01266  -0.0781  0.4390  0.7998
  11.700   1.5901   0.01654   0.01288  -0.0776  0.4383  0.7999
  11.800   1.5776   0.01762   0.01396  -0.0750  0.4323  0.8008
  11.850   1.5695   0.01825   0.01458  -0.0734  0.4292  0.8015
  11.900   1.5610   0.01893   0.01527  -0.0719  0.4270  0.8022
  11.950   1.5480   0.01983   0.01616  -0.0698  0.4238  0.8030
  12.000   1.5306   0.02098   0.01731  -0.0673  0.4198  0.8038
