  
       XFOIL         Version 6.94
  
 Calculated polar for: 1080                                            
  
 1 1 Reynolds number fixed          Mach number fixed         
  
 xtrf =   1.000 (top)        1.000 (bottom)  
 Mach =   0.000     Re =     2.000 e 6     Ncrit =   9.000
  
  alpha     CL        CD       CDp       CM    Top_Xtr Bot_Xtr
 ------- -------- --------- --------- -------- ------- -------
   6.000   1.3998   0.00862   0.00468  -0.1397  0.5382  0.7818
   6.050   1.4043   0.00862   0.00469  -0.1396  0.5381  0.7820
   6.100   1.4090   0.00863   0.00469  -0.1395  0.5380  0.7821
   6.150   1.4136   0.00863   0.00470  -0.1394  0.5378  0.7822
   6.200   1.4183   0.00863   0.00472  -0.1394  0.5377  0.7824
   6.250   1.4228   0.00864   0.00472  -0.1393  0.5376  0.7825
   6.300   1.4273   0.00864   0.00473  -0.1392  0.5374  0.7827
   6.350   1.4318   0.00865   0.00474  -0.1391  0.5373  0.7828
   6.400   1.4363   0.00865   0.00475  -0.1390  0.5372  0.7830
   6.450   1.4407   0.00866   0.00476  -0.1389  0.5370  0.7831
   6.500   1.4453   0.00866   0.00477  -0.1388  0.5368  0.7833
   6.550   1.4498   0.00867   0.00478  -0.1387  0.5367  0.7834
   6.600   1.4543   0.00868   0.00479  -0.1386  0.5365  0.7836
   6.650   1.4588   0.00869   0.00481  -0.1385  0.5364  0.7837
   6.700   1.4633   0.00869   0.00482  -0.1384  0.5362  0.7839
   6.750   1.4679   0.00870   0.00483  -0.1383  0.5360  0.7840
   6.800   1.4724   0.00870   0.00484  -0.1382  0.5358  0.7842
   6.850   1.4769   0.00871   0.00485  -0.1381  0.5356  0.7843
   6.900   1.4815   0.00872   0.00486  -0.1381  0.5354  0.7845
   6.950   1.4861   0.00873   0.00487  -0.1380  0.5352  0.7846
   7.000   1.4906   0.00873   0.00488  -0.1379  0.5350  0.7848
   7.050   1.4951   0.00874   0.00489  -0.1378  0.5348  0.7849
   7.100   1.4997   0.00874   0.00490  -0.1377  0.5345  0.7851
   7.150   1.5042   0.00875   0.00491  -0.1377  0.5343  0.7852
   7.200   1.5088   0.00875   0.00492  -0.1376  0.5341  0.7853
   7.250   1.5133   0.00876   0.00493  -0.1375  0.5338  0.7855
   7.300   1.5179   0.00877   0.00494  -0.1374  0.5336  0.7856
   7.350   1.5224   0.00878   0.00495  -0.1373  0.5333  0.7858
   7.400   1.5267   0.00878   0.00496  -0.1372  0.5330  0.7859
   7.450   1.5311   0.00879   0.00497  -0.1371  0.5328  0.7861
   7.500   1.5353   0.00879   0.00498  -0.1369  0.5325  0.7862
   7.550   1.5395   0.00880   0.00499  -0.1368  0.5322  0.7864
   7.600   1.5438   0.00881   0.00500  -0.1367  0.5319  0.7865
   7.650   1.5480   0.00882   0.00503  -0.1365  0.5317  0.7867
   7.700   1.5521   0.00882   0.00503  -0.1364  0.5313  0.7868
   7.750   1.5564   0.00883   0.00505  -0.1362  0.5310  0.7870
   7.800   1.5607   0.00884   0.00506  -0.1361  0.5308  0.7871
   7.850   1.5650   0.00885   0.00507  -0.1360  0.5305  0.7873
   7.900   1.5692   0.00885   0.00508  -0.1359  0.5301  0.7874
   7.950   1.5734   0.00886   0.00509  -0.1357  0.5298  0.7876
   8.000   1.5778   0.00887   0.00511  -0.1356  0.5295  0.7877
   8.050   1.5819   0.00888   0.00512  -0.1355  0.5292  0.7878
   8.100   1.5861   0.00889   0.00513  -0.1353  0.5288  0.7880
   8.150   1.5902   0.00890   0.00514  -0.1352  0.5284  0.7881
   8.200   1.5943   0.00892   0.00516  -0.1350  0.5280  0.7883
   8.250   1.5985   0.00893   0.00518  -0.1349  0.5277  0.7884
   8.300   1.6024   0.00895   0.00520  -0.1347  0.5273  0.7886
   8.350   1.6065   0.00897   0.00522  -0.1346  0.5269  0.7887
   8.400   1.6102   0.00899   0.00524  -0.1343  0.5264  0.7889
   8.450   1.6142   0.00901   0.00526  -0.1342  0.5260  0.7890
   8.500   1.6179   0.00903   0.00529  -0.1339  0.5255  0.7892
   8.550   1.6219   0.00906   0.00531  -0.1338  0.5251  0.7893
   8.600   1.6254   0.00909   0.00534  -0.1335  0.5245  0.7895
   8.650   1.6292   0.00912   0.00537  -0.1333  0.5239  0.7896
   8.700   1.6328   0.00915   0.00540  -0.1331  0.5232  0.7898
   8.750   1.6368   0.00919   0.00545  -0.1330  0.5227  0.7899
   8.800   1.6405   0.00923   0.00548  -0.1328  0.5218  0.7901
   8.850   1.6445   0.00926   0.00552  -0.1326  0.5213  0.7902
   8.900   1.6487   0.00931   0.00556  -0.1325  0.5205  0.7904
   8.950   1.6529   0.00934   0.00560  -0.1324  0.5200  0.7905
   9.000   1.6564   0.00936   0.00563  -0.1321  0.5198  0.7907
   9.050   1.6605   0.00938   0.00566  -0.1320  0.5198  0.7908
   9.100   1.6641   0.00939   0.00568  -0.1318  0.5196  0.7910
   9.150   1.6680   0.00942   0.00571  -0.1316  0.5194  0.7911
   9.200   1.6718   0.00943   0.00574  -0.1314  0.5192  0.7913
   9.250   1.6759   0.00945   0.00577  -0.1313  0.5191  0.7914
   9.300   1.6798   0.00947   0.00580  -0.1311  0.5188  0.7916
   9.350   1.6838   0.00949   0.00582  -0.1310  0.5186  0.7917
   9.400   1.6879   0.00951   0.00586  -0.1309  0.5184  0.7919
   9.450   1.6920   0.00953   0.00589  -0.1307  0.5182  0.7920
   9.500   1.6960   0.00956   0.00591  -0.1306  0.5178  0.7922
   9.550   1.7001   0.00958   0.00595  -0.1305  0.5175  0.7923
   9.600   1.7043   0.00960   0.00598  -0.1304  0.5173  0.7925
   9.650   1.7083   0.00963   0.00601  -0.1303  0.5170  0.7926
   9.700   1.7122   0.00965   0.00604  -0.1301  0.5165  0.7928
   9.750   1.7160   0.00968   0.00608  -0.1299  0.5163  0.7930
   9.800   1.7197   0.00970   0.00611  -0.1297  0.5156  0.7931
   9.850   1.7235   0.00973   0.00615  -0.1296  0.5152  0.7933
   9.900   1.7272   0.00976   0.00618  -0.1294  0.5147  0.7935
   9.950   1.7310   0.00979   0.00622  -0.1292  0.5143  0.7936
  10.000   1.7348   0.00982   0.00626  -0.1290  0.5138  0.7938
  10.050   1.7386   0.00985   0.00630  -0.1289  0.5132  0.7939
  10.100   1.7422   0.00988   0.00633  -0.1287  0.5126  0.7941
  10.150   1.7458   0.00992   0.00637  -0.1285  0.5120  0.7943
  10.200   1.7493   0.00995   0.00641  -0.1283  0.5113  0.7944
  10.250   1.7529   0.00999   0.00645  -0.1281  0.5108  0.7946
  10.300   1.7562   0.01003   0.00650  -0.1278  0.5101  0.7948
  10.350   1.7593   0.01007   0.00654  -0.1276  0.5094  0.7949
  10.400   1.7614   0.01013   0.00660  -0.1271  0.5083  0.7951
  10.450   1.7641   0.01018   0.00666  -0.1267  0.5078  0.7953
  10.500   1.7654   0.01026   0.00673  -0.1261  0.5067  0.7955
  10.550   1.7674   0.01033   0.00680  -0.1257  0.5060  0.7957
  10.600   1.7684   0.01042   0.00688  -0.1250  0.5049  0.7959
  10.650   1.7698   0.01050   0.00697  -0.1245  0.5040  0.7961
  10.700   1.7702   0.01061   0.00708  -0.1237  0.5028  0.7963
  10.750   1.7698   0.01074   0.00720  -0.1229  0.5015  0.7965
  10.800   1.7691   0.01088   0.00734  -0.1220  0.5001  0.7967
  10.850   1.7727   0.01093   0.00741  -0.1218  0.4997  0.7968
  10.900   1.7764   0.01097   0.00747  -0.1217  0.4992  0.7970
  10.950   1.7802   0.01102   0.00753  -0.1215  0.4987  0.7971
  11.000   1.7839   0.01107   0.00759  -0.1214  0.4981  0.7973
  11.050   1.7874   0.01112   0.00765  -0.1212  0.4974  0.7974
  11.100   1.7907   0.01118   0.00771  -0.1210  0.4965  0.7976
  11.150   1.7938   0.01125   0.00779  -0.1208  0.4957  0.7977
  11.200   1.7961   0.01133   0.00787  -0.1204  0.4945  0.7979
  11.250   1.7976   0.01144   0.00798  -0.1199  0.4931  0.7980
  11.300   1.7981   0.01157   0.00811  -0.1192  0.4913  0.7982
  11.350   1.7989   0.01169   0.00824  -0.1186  0.4899  0.7984
  11.400   1.7987   0.01185   0.00839  -0.1179  0.4881  0.7985
  11.450   1.7977   0.01203   0.00857  -0.1170  0.4864  0.7987
  11.500   1.7921   0.01235   0.00888  -0.1154  0.4839  0.7989
  11.550   1.7873   0.01267   0.00919  -0.1140  0.4816  0.7991
  11.600   1.7834   0.01297   0.00949  -0.1127  0.4795  0.7993
  11.650   1.7851   0.01310   0.00963  -0.1123  0.4787  0.7994
  11.700   1.7852   0.01329   0.00982  -0.1117  0.4768  0.7995
  11.750   1.7861   0.01345   0.00998  -0.1112  0.4756  0.7996
  11.800   1.7842   0.01371   0.01024  -0.1102  0.4734  0.7998
  11.850   1.7807   0.01404   0.01057  -0.1091  0.4711  0.7999
  11.950   1.7655   0.01506   0.01157  -0.1058  0.4654  0.8009
  12.000   1.7490   0.01599   0.01249  -0.1030  0.4614  0.8018
