  
       XFOIL         Version 6.94
  
 Calculated polar for: 1080                                            
  
 1 1 Reynolds number fixed          Mach number fixed         
  
 xtrf =   1.000 (top)        1.000 (bottom)  
 Mach =   0.000     Re =     2.000 e 6     Ncrit =   9.000
  
  alpha     CL        CD       CDp       CM    Top_Xtr Bot_Xtr
 ------- -------- --------- --------- -------- ------- -------
   6.000   1.3491   0.00820   0.00426  -0.1303  0.5389  0.7821
   6.050   1.3536   0.00819   0.00427  -0.1302  0.5388  0.7823
   6.100   1.3580   0.00819   0.00427  -0.1301  0.5387  0.7825
   6.150   1.3626   0.00819   0.00427  -0.1300  0.5386  0.7827
   6.200   1.3671   0.00819   0.00428  -0.1298  0.5385  0.7829
   6.250   1.3715   0.00819   0.00428  -0.1297  0.5383  0.7831
   6.300   1.3761   0.00819   0.00429  -0.1296  0.5382  0.7833
   6.350   1.3806   0.00819   0.00429  -0.1295  0.5380  0.7835
   6.400   1.3852   0.00819   0.00430  -0.1294  0.5379  0.7836
   6.450   1.3897   0.00819   0.00430  -0.1293  0.5377  0.7838
   6.500   1.3942   0.00819   0.00431  -0.1292  0.5375  0.7840
   6.550   1.3988   0.00820   0.00431  -0.1291  0.5373  0.7841
   6.600   1.4034   0.00820   0.00432  -0.1290  0.5371  0.7843
   6.650   1.4081   0.00820   0.00433  -0.1289  0.5369  0.7844
   6.700   1.4126   0.00820   0.00433  -0.1288  0.5367  0.7846
   6.750   1.4171   0.00821   0.00434  -0.1287  0.5364  0.7848
   6.800   1.4215   0.00821   0.00435  -0.1285  0.5362  0.7849
   6.850   1.4261   0.00821   0.00436  -0.1284  0.5360  0.7851
   6.900   1.4305   0.00821   0.00437  -0.1283  0.5357  0.7852
   6.950   1.4350   0.00822   0.00438  -0.1282  0.5355  0.7854
   7.000   1.4394   0.00822   0.00438  -0.1281  0.5351  0.7855
   7.050   1.4438   0.00823   0.00439  -0.1279  0.5349  0.7857
   7.100   1.4483   0.00823   0.00440  -0.1278  0.5346  0.7858
   7.150   1.4528   0.00824   0.00441  -0.1277  0.5343  0.7860
   7.200   1.4573   0.00824   0.00442  -0.1276  0.5340  0.7862
   7.250   1.4617   0.00825   0.00443  -0.1275  0.5337  0.7863
   7.300   1.4663   0.00825   0.00444  -0.1274  0.5334  0.7865
   7.350   1.4708   0.00826   0.00445  -0.1273  0.5331  0.7866
   7.400   1.4753   0.00826   0.00447  -0.1272  0.5327  0.7868
   7.450   1.4799   0.00827   0.00448  -0.1271  0.5325  0.7869
   7.500   1.4844   0.00828   0.00449  -0.1270  0.5321  0.7871
   7.550   1.4890   0.00828   0.00450  -0.1269  0.5318  0.7872
   7.600   1.4935   0.00829   0.00451  -0.1269  0.5315  0.7873
   7.650   1.4981   0.00830   0.00452  -0.1268  0.5312  0.7875
   7.700   1.5025   0.00830   0.00453  -0.1266  0.5308  0.7877
   7.750   1.5069   0.00831   0.00454  -0.1265  0.5304  0.7878
   7.800   1.5112   0.00832   0.00455  -0.1264  0.5300  0.7879
   7.850   1.5154   0.00833   0.00457  -0.1262  0.5296  0.7881
   7.900   1.5194   0.00834   0.00458  -0.1260  0.5292  0.7883
   7.950   1.5233   0.00835   0.00459  -0.1258  0.5287  0.7884
   8.000   1.5273   0.00836   0.00461  -0.1256  0.5283  0.7886
   8.050   1.5311   0.00838   0.00462  -0.1254  0.5278  0.7887
   8.100   1.5347   0.00839   0.00464  -0.1251  0.5273  0.7889
   8.150   1.5390   0.00841   0.00466  -0.1250  0.5270  0.7890
   8.200   1.5425   0.00843   0.00468  -0.1247  0.5264  0.7892
   8.250   1.5462   0.00845   0.00470  -0.1245  0.5259  0.7894
   8.300   1.5498   0.00847   0.00472  -0.1242  0.5253  0.7895
   8.350   1.5534   0.00850   0.00475  -0.1239  0.5247  0.7897
   8.400   1.5571   0.00852   0.00477  -0.1237  0.5241  0.7898
   8.450   1.5609   0.00855   0.00480  -0.1235  0.5235  0.7900
   8.500   1.5647   0.00858   0.00484  -0.1233  0.5228  0.7902
   8.550   1.5686   0.00861   0.00487  -0.1231  0.5221  0.7903
   8.600   1.5727   0.00864   0.00490  -0.1229  0.5214  0.7905
   8.650   1.5770   0.00868   0.00493  -0.1228  0.5208  0.7906
   8.700   1.5813   0.00871   0.00497  -0.1227  0.5200  0.7907
   8.750   1.5858   0.00873   0.00499  -0.1226  0.5199  0.7909
   8.800   1.5902   0.00874   0.00501  -0.1225  0.5197  0.7911
   8.850   1.5946   0.00875   0.00503  -0.1224  0.5195  0.7912
   8.900   1.5991   0.00876   0.00505  -0.1224  0.5193  0.7913
   8.950   1.6035   0.00877   0.00508  -0.1223  0.5191  0.7915
   9.000   1.6080   0.00879   0.00510  -0.1222  0.5188  0.7916
   9.050   1.6125   0.00880   0.00512  -0.1221  0.5186  0.7918
   9.100   1.6170   0.00882   0.00515  -0.1221  0.5183  0.7920
   9.150   1.6215   0.00883   0.00517  -0.1220  0.5180  0.7921
   9.200   1.6259   0.00885   0.00520  -0.1219  0.5177  0.7923
   9.250   1.6302   0.00887   0.00522  -0.1218  0.5173  0.7924
   9.300   1.6344   0.00888   0.00525  -0.1217  0.5168  0.7926
   9.350   1.6386   0.00890   0.00527  -0.1216  0.5164  0.7928
   9.400   1.6427   0.00892   0.00530  -0.1214  0.5159  0.7929
   9.450   1.6469   0.00894   0.00533  -0.1213  0.5154  0.7931
   9.500   1.6510   0.00896   0.00535  -0.1211  0.5148  0.7932
   9.550   1.6551   0.00898   0.00538  -0.1210  0.5142  0.7934
   9.600   1.6591   0.00900   0.00541  -0.1208  0.5135  0.7936
   9.650   1.6630   0.00903   0.00544  -0.1207  0.5129  0.7937
   9.700   1.6667   0.00905   0.00547  -0.1205  0.5120  0.7939
   9.750   1.6703   0.00908   0.00550  -0.1202  0.5112  0.7941
   9.800   1.6738   0.00911   0.00553  -0.1200  0.5102  0.7942
   9.850   1.6772   0.00914   0.00556  -0.1197  0.5094  0.7944
   9.900   1.6802   0.00918   0.00560  -0.1194  0.5084  0.7946
   9.950   1.6830   0.00922   0.00564  -0.1190  0.5073  0.7948
  10.000   1.6859   0.00926   0.00568  -0.1187  0.5065  0.7950
  10.050   1.6874   0.00933   0.00574  -0.1180  0.5052  0.7952
  10.100   1.6884   0.00940   0.00581  -0.1173  0.5040  0.7954
  10.150   1.6893   0.00948   0.00589  -0.1166  0.5027  0.7956
  10.200   1.6901   0.00956   0.00597  -0.1159  0.5013  0.7958
  10.250   1.6911   0.00965   0.00605  -0.1152  0.4999  0.7960
  10.300   1.6954   0.00968   0.00609  -0.1152  0.4994  0.7961
  10.350   1.6996   0.00971   0.00613  -0.1151  0.4988  0.7963
  10.400   1.7036   0.00974   0.00617  -0.1149  0.4980  0.7965
  10.450   1.7075   0.00978   0.00622  -0.1148  0.4975  0.7966
  10.500   1.7110   0.00982   0.00627  -0.1146  0.4964  0.7968
  10.550   1.7140   0.00987   0.00634  -0.1143  0.4953  0.7969
  10.600   1.7167   0.00993   0.00640  -0.1139  0.4941  0.7971
  10.650   1.7191   0.01000   0.00647  -0.1135  0.4928  0.7973
  10.700   1.7209   0.01008   0.00655  -0.1130  0.4912  0.7975
  10.750   1.7217   0.01018   0.00664  -0.1123  0.4892  0.7976
  10.800   1.7227   0.01028   0.00674  -0.1117  0.4875  0.7978
  10.850   1.7216   0.01042   0.00688  -0.1107  0.4853  0.7980
  10.900   1.7193   0.01060   0.00705  -0.1095  0.4832  0.7982
  10.950   1.7167   0.01079   0.00723  -0.1082  0.4810  0.7984
  11.000   1.7165   0.01094   0.00737  -0.1074  0.4788  0.7986
  11.050   1.7174   0.01106   0.00749  -0.1068  0.4767  0.7987
  11.100   1.7179   0.01119   0.00763  -0.1061  0.4749  0.7989
  11.150   1.7178   0.01134   0.00778  -0.1054  0.4730  0.7990
  11.200   1.7121   0.01166   0.00808  -0.1037  0.4686  0.7993
  11.250   1.7094   0.01190   0.00831  -0.1025  0.4665  0.7994
  11.300   1.7039   0.01223   0.00863  -0.1010  0.4639  0.7996
  11.350   1.6936   0.01274   0.00912  -0.0987  0.4598  0.7998
  11.400   1.6937   0.01292   0.00931  -0.0980  0.4584  0.7999
  11.500   1.6894   0.01345   0.00984  -0.0961  0.4536  0.8007
  11.550   1.6850   0.01380   0.01019  -0.0948  0.4511  0.8013
  11.600   1.6763   0.01434   0.01072  -0.0930  0.4475  0.8021
  11.650   1.6687   0.01486   0.01124  -0.0913  0.4451  0.8028
  11.700   1.6545   0.01569   0.01206  -0.0888  0.4412  0.8037
  11.750   1.6494   0.01616   0.01253  -0.0876  0.4385  0.8043
  11.800   1.6500   0.01638   0.01276  -0.0871  0.4380  0.8048
  11.850   1.6430   0.01695   0.01334  -0.0857  0.4347  0.8054
  11.900   1.6328   0.01770   0.01408  -0.0839  0.4310  0.8061
  11.950   1.6233   0.01842   0.01480  -0.0822  0.4280  0.8067
  12.000   1.6103   0.01936   0.01573  -0.0801  0.4251  0.8074
