  
       XFOIL         Version 6.94
  
 Calculated polar for: 1080                                            
  
 1 1 Reynolds number fixed          Mach number fixed         
  
 xtrf =   1.000 (top)        1.000 (bottom)  
 Mach =   0.000     Re =     2.000 e 6     Ncrit =   9.000
  
  alpha     CL        CD       CDp       CM    Top_Xtr Bot_Xtr
 ------- -------- --------- --------- -------- ------- -------
   6.000   1.3439   0.00824   0.00431  -0.1292  0.5389  0.7808
   6.050   1.3486   0.00824   0.00431  -0.1291  0.5388  0.7810
   6.100   1.3532   0.00824   0.00432  -0.1290  0.5387  0.7812
   6.150   1.3576   0.00824   0.00432  -0.1289  0.5386  0.7815
   6.200   1.3622   0.00824   0.00432  -0.1288  0.5384  0.7817
   6.250   1.3669   0.00824   0.00433  -0.1287  0.5383  0.7819
   6.300   1.3714   0.00824   0.00434  -0.1286  0.5382  0.7821
   6.350   1.3759   0.00824   0.00434  -0.1285  0.5380  0.7823
   6.400   1.3805   0.00824   0.00434  -0.1284  0.5378  0.7825
   6.450   1.3851   0.00824   0.00435  -0.1283  0.5377  0.7827
   6.500   1.3897   0.00825   0.00436  -0.1282  0.5375  0.7829
   6.550   1.3943   0.00825   0.00436  -0.1281  0.5373  0.7831
   6.600   1.3987   0.00825   0.00437  -0.1280  0.5371  0.7833
   6.650   1.4033   0.00825   0.00438  -0.1279  0.5370  0.7834
   6.700   1.4078   0.00826   0.00439  -0.1278  0.5367  0.7836
   6.750   1.4121   0.00826   0.00439  -0.1276  0.5365  0.7838
   6.800   1.4166   0.00826   0.00440  -0.1275  0.5363  0.7840
   6.850   1.4210   0.00827   0.00441  -0.1274  0.5360  0.7841
   6.900   1.4254   0.00827   0.00442  -0.1272  0.5357  0.7843
   6.950   1.4299   0.00827   0.00443  -0.1271  0.5355  0.7845
   7.000   1.4343   0.00828   0.00443  -0.1270  0.5352  0.7846
   7.050   1.4388   0.00828   0.00444  -0.1269  0.5349  0.7848
   7.100   1.4433   0.00828   0.00445  -0.1268  0.5347  0.7850
   7.150   1.4478   0.00829   0.00446  -0.1267  0.5343  0.7851
   7.200   1.4524   0.00830   0.00447  -0.1266  0.5341  0.7853
   7.250   1.4569   0.00830   0.00448  -0.1265  0.5338  0.7854
   7.300   1.4615   0.00831   0.00449  -0.1264  0.5335  0.7856
   7.350   1.4659   0.00831   0.00450  -0.1263  0.5332  0.7858
   7.400   1.4705   0.00831   0.00451  -0.1262  0.5328  0.7859
   7.450   1.4750   0.00832   0.00453  -0.1261  0.5325  0.7861
   7.500   1.4796   0.00833   0.00454  -0.1260  0.5322  0.7862
   7.550   1.4841   0.00833   0.00455  -0.1260  0.5319  0.7864
   7.600   1.4886   0.00834   0.00456  -0.1258  0.5315  0.7865
   7.650   1.4931   0.00835   0.00457  -0.1257  0.5312  0.7867
   7.700   1.4974   0.00835   0.00458  -0.1256  0.5309  0.7869
   7.750   1.5015   0.00836   0.00459  -0.1254  0.5305  0.7870
   7.800   1.5058   0.00837   0.00461  -0.1253  0.5302  0.7872
   7.850   1.5098   0.00838   0.00462  -0.1251  0.5298  0.7873
   7.900   1.5139   0.00839   0.00463  -0.1249  0.5294  0.7875
   7.950   1.5178   0.00840   0.00464  -0.1247  0.5289  0.7876
   8.000   1.5218   0.00842   0.00466  -0.1245  0.5285  0.7878
   8.050   1.5258   0.00843   0.00467  -0.1243  0.5281  0.7880
   8.100   1.5295   0.00844   0.00469  -0.1241  0.5275  0.7881
   8.150   1.5335   0.00846   0.00471  -0.1239  0.5271  0.7883
   8.200   1.5375   0.00848   0.00473  -0.1237  0.5267  0.7884
   8.250   1.5410   0.00850   0.00474  -0.1234  0.5261  0.7886
   8.300   1.5451   0.00852   0.00477  -0.1233  0.5257  0.7888
   8.350   1.5487   0.00854   0.00479  -0.1230  0.5251  0.7889
   8.400   1.5524   0.00857   0.00482  -0.1228  0.5245  0.7891
   8.450   1.5562   0.00859   0.00484  -0.1226  0.5239  0.7893
   8.500   1.5598   0.00862   0.00487  -0.1223  0.5232  0.7894
   8.550   1.5637   0.00865   0.00491  -0.1221  0.5225  0.7896
   8.600   1.5677   0.00869   0.00495  -0.1220  0.5218  0.7897
   8.650   1.5719   0.00872   0.00498  -0.1218  0.5210  0.7899
   8.700   1.5761   0.00876   0.00501  -0.1217  0.5203  0.7900
   8.750   1.5806   0.00878   0.00504  -0.1216  0.5199  0.7902
   8.800   1.5850   0.00879   0.00506  -0.1215  0.5198  0.7903
   8.850   1.5894   0.00881   0.00508  -0.1215  0.5196  0.7905
   8.900   1.5938   0.00882   0.00511  -0.1214  0.5194  0.7906
   8.950   1.5982   0.00883   0.00513  -0.1213  0.5192  0.7908
   9.000   1.6026   0.00885   0.00515  -0.1212  0.5190  0.7909
   9.050   1.6069   0.00886   0.00518  -0.1211  0.5187  0.7911
   9.100   1.6111   0.00888   0.00520  -0.1209  0.5185  0.7912
   9.150   1.6152   0.00890   0.00523  -0.1208  0.5182  0.7914
   9.200   1.6193   0.00892   0.00526  -0.1207  0.5179  0.7916
   9.250   1.6235   0.00894   0.00529  -0.1205  0.5175  0.7917
   9.300   1.6276   0.00896   0.00531  -0.1204  0.5172  0.7919
   9.350   1.6317   0.00898   0.00534  -0.1203  0.5168  0.7920
   9.400   1.6359   0.00899   0.00537  -0.1201  0.5163  0.7922
   9.450   1.6400   0.00901   0.00539  -0.1200  0.5157  0.7924
   9.500   1.6442   0.00903   0.00542  -0.1199  0.5153  0.7925
   9.550   1.6485   0.00905   0.00545  -0.1198  0.5147  0.7927
   9.600   1.6526   0.00907   0.00548  -0.1196  0.5142  0.7929
   9.650   1.6568   0.00910   0.00551  -0.1195  0.5136  0.7930
   9.700   1.6607   0.00912   0.00553  -0.1193  0.5128  0.7932
   9.750   1.6645   0.00915   0.00556  -0.1192  0.5120  0.7934
   9.800   1.6681   0.00917   0.00559  -0.1189  0.5111  0.7935
   9.850   1.6717   0.00920   0.00563  -0.1187  0.5103  0.7937
   9.900   1.6750   0.00924   0.00566  -0.1184  0.5094  0.7939
   9.950   1.6779   0.00928   0.00570  -0.1181  0.5084  0.7941
  10.000   1.6801   0.00933   0.00575  -0.1176  0.5074  0.7943
  10.050   1.6824   0.00938   0.00580  -0.1171  0.5065  0.7945
  10.100   1.6840   0.00944   0.00587  -0.1166  0.5054  0.7946
  10.150   1.6856   0.00951   0.00593  -0.1160  0.5043  0.7949
  10.200   1.6863   0.00960   0.00601  -0.1152  0.5029  0.7951
  10.250   1.6875   0.00968   0.00609  -0.1146  0.5017  0.7953
  10.300   1.6878   0.00978   0.00619  -0.1138  0.5000  0.7955
  10.350   1.6918   0.00981   0.00623  -0.1137  0.4996  0.7957
  10.400   1.6958   0.00985   0.00627  -0.1135  0.4991  0.7958
  10.450   1.6995   0.00989   0.00632  -0.1134  0.4982  0.7960
  10.500   1.7029   0.00993   0.00637  -0.1131  0.4973  0.7962
  10.550   1.7062   0.00998   0.00643  -0.1129  0.4964  0.7963
  10.600   1.7093   0.01003   0.00650  -0.1126  0.4953  0.7965
  10.650   1.7120   0.01009   0.00656  -0.1123  0.4940  0.7967
  10.700   1.7146   0.01016   0.00663  -0.1119  0.4927  0.7968
  10.750   1.7168   0.01023   0.00671  -0.1115  0.4913  0.7970
  10.800   1.7182   0.01032   0.00680  -0.1109  0.4895  0.7972
  10.850   1.7183   0.01044   0.00691  -0.1101  0.4877  0.7974
  10.900   1.7169   0.01060   0.00706  -0.1091  0.4857  0.7976
  10.950   1.7134   0.01081   0.00726  -0.1077  0.4830  0.7978
  11.000   1.7124   0.01098   0.00742  -0.1068  0.4813  0.7980
  11.050   1.7111   0.01115   0.00760  -0.1058  0.4794  0.7982
  11.100   1.7117   0.01128   0.00773  -0.1051  0.4775  0.7984
  11.150   1.7127   0.01141   0.00786  -0.1045  0.4758  0.7986
  11.200   1.7123   0.01158   0.00802  -0.1037  0.4733  0.7987
  11.250   1.7109   0.01178   0.00822  -0.1028  0.4709  0.7989
  11.300   1.7055   0.01210   0.00853  -0.1012  0.4677  0.7991
  11.350   1.6987   0.01248   0.00889  -0.0995  0.4644  0.7993
  11.400   1.6930   0.01285   0.00925  -0.0979  0.4622  0.7995
  11.450   1.6874   0.01323   0.00963  -0.0964  0.4591  0.7996
  11.500   1.6854   0.01350   0.00989  -0.0955  0.4570  0.7998
  11.550   1.6825   0.01380   0.01020  -0.0944  0.4545  0.7999
  11.650   1.6690   0.01475   0.01113  -0.0913  0.4483  0.8010
  11.700   1.6624   0.01524   0.01162  -0.0898  0.4458  0.8017
  11.750   1.6471   0.01613   0.01251  -0.0872  0.4418  0.8026
  11.800   1.6407   0.01668   0.01306  -0.0859  0.4399  0.8033
  11.850   1.6387   0.01702   0.01341  -0.0850  0.4380  0.8038
  11.900   1.6325   0.01757   0.01396  -0.0837  0.4351  0.8044
  11.950   1.6255   0.01817   0.01456  -0.0824  0.4323  0.8051
  12.000   1.6227   0.01857   0.01496  -0.0815  0.4308  0.8056
