  
       XFOIL         Version 6.94
  
 Calculated polar for: 1080                                            
  
 1 1 Reynolds number fixed          Mach number fixed         
  
 xtrf =   1.000 (top)        1.000 (bottom)  
 Mach =   0.000     Re =     2.000 e 6     Ncrit =   9.000
  
  alpha     CL        CD       CDp       CM    Top_Xtr Bot_Xtr
 ------- -------- --------- --------- -------- ------- -------
   6.000   1.3893   0.00873   0.00480  -0.1374  0.5382  0.7800
   6.050   1.3938   0.00874   0.00481  -0.1373  0.5380  0.7800
   6.100   1.3982   0.00874   0.00482  -0.1372  0.5379  0.7801
   6.150   1.4027   0.00875   0.00482  -0.1371  0.5378  0.7803
   6.250   1.4115   0.00875   0.00484  -0.1369  0.5375  0.7805
   6.300   1.4160   0.00875   0.00485  -0.1368  0.5373  0.7807
   6.350   1.4205   0.00876   0.00485  -0.1367  0.5372  0.7809
   6.400   1.4251   0.00876   0.00486  -0.1366  0.5370  0.7810
   6.450   1.4296   0.00877   0.00487  -0.1365  0.5369  0.7812
   6.500   1.4342   0.00877   0.00488  -0.1364  0.5367  0.7813
   6.550   1.4388   0.00878   0.00489  -0.1364  0.5366  0.7815
   6.600   1.4434   0.00879   0.00490  -0.1363  0.5364  0.7816
   6.650   1.4479   0.00879   0.00491  -0.1362  0.5362  0.7818
   6.700   1.4525   0.00880   0.00492  -0.1361  0.5361  0.7819
   6.750   1.4572   0.00881   0.00494  -0.1361  0.5359  0.7821
   6.800   1.4617   0.00881   0.00494  -0.1360  0.5357  0.7823
   6.850   1.4663   0.00882   0.00496  -0.1359  0.5356  0.7824
   6.900   1.4709   0.00883   0.00497  -0.1359  0.5353  0.7826
   6.950   1.4756   0.00884   0.00498  -0.1358  0.5352  0.7827
   7.000   1.4801   0.00884   0.00499  -0.1357  0.5350  0.7829
   7.050   1.4845   0.00885   0.00500  -0.1356  0.5348  0.7831
   7.100   1.4888   0.00885   0.00501  -0.1355  0.5345  0.7832
   7.150   1.4932   0.00887   0.00502  -0.1354  0.5343  0.7834
   7.200   1.4975   0.00887   0.00503  -0.1353  0.5341  0.7836
   7.250   1.5018   0.00888   0.00504  -0.1351  0.5338  0.7837
   7.300   1.5061   0.00889   0.00505  -0.1350  0.5336  0.7839
   7.350   1.5104   0.00889   0.00506  -0.1349  0.5333  0.7841
   7.400   1.5147   0.00890   0.00508  -0.1348  0.5331  0.7842
   7.450   1.5191   0.00891   0.00509  -0.1347  0.5329  0.7844
   7.500   1.5234   0.00891   0.00510  -0.1345  0.5326  0.7846
   7.550   1.5278   0.00892   0.00511  -0.1344  0.5323  0.7847
   7.600   1.5322   0.00893   0.00512  -0.1343  0.5321  0.7849
   7.650   1.5366   0.00894   0.00514  -0.1342  0.5318  0.7851
   7.700   1.5409   0.00894   0.00515  -0.1341  0.5314  0.7852
   7.750   1.5453   0.00895   0.00516  -0.1340  0.5312  0.7854
   7.800   1.5496   0.00895   0.00517  -0.1339  0.5309  0.7855
   7.850   1.5540   0.00896   0.00518  -0.1338  0.5306  0.7857
   7.900   1.5583   0.00897   0.00519  -0.1337  0.5303  0.7859
   7.950   1.5627   0.00898   0.00521  -0.1336  0.5300  0.7860
   8.000   1.5669   0.00899   0.00522  -0.1335  0.5296  0.7862
   8.050   1.5712   0.00900   0.00523  -0.1334  0.5293  0.7863
   8.100   1.5754   0.00901   0.00524  -0.1332  0.5290  0.7865
   8.150   1.5797   0.00902   0.00526  -0.1331  0.5286  0.7866
   8.200   1.5837   0.00903   0.00527  -0.1330  0.5282  0.7868
   8.250   1.5879   0.00905   0.00529  -0.1328  0.5279  0.7870
   8.300   1.5918   0.00907   0.00531  -0.1327  0.5275  0.7871
   8.350   1.5957   0.00908   0.00533  -0.1325  0.5271  0.7873
   8.400   1.5997   0.00910   0.00535  -0.1323  0.5267  0.7874
   8.450   1.6034   0.00913   0.00537  -0.1321  0.5263  0.7876
   8.500   1.6071   0.00915   0.00540  -0.1319  0.5259  0.7878
   8.550   1.6104   0.00918   0.00543  -0.1316  0.5254  0.7879
   8.600   1.6134   0.00921   0.00546  -0.1312  0.5248  0.7881
   8.650   1.6168   0.00925   0.00550  -0.1310  0.5243  0.7882
   8.700   1.6200   0.00928   0.00553  -0.1307  0.5237  0.7884
   8.750   1.6235   0.00932   0.00557  -0.1304  0.5231  0.7886
   8.800   1.6272   0.00935   0.00561  -0.1302  0.5225  0.7887
   8.850   1.6311   0.00939   0.00565  -0.1301  0.5219  0.7889
   8.900   1.6352   0.00943   0.00569  -0.1299  0.5212  0.7890
   8.950   1.6395   0.00947   0.00573  -0.1299  0.5205  0.7892
   9.000   1.6437   0.00951   0.00577  -0.1298  0.5200  0.7893
   9.050   1.6476   0.00953   0.00580  -0.1296  0.5198  0.7895
   9.100   1.6515   0.00955   0.00583  -0.1294  0.5197  0.7896
   9.150   1.6554   0.00957   0.00585  -0.1293  0.5196  0.7898
   9.200   1.6592   0.00959   0.00588  -0.1291  0.5194  0.7900
   9.250   1.6632   0.00961   0.00591  -0.1290  0.5193  0.7901
   9.300   1.6671   0.00963   0.00594  -0.1288  0.5190  0.7903
   9.350   1.6709   0.00965   0.00597  -0.1286  0.5188  0.7904
   9.400   1.6749   0.00967   0.00601  -0.1285  0.5187  0.7906
   9.450   1.6785   0.00970   0.00604  -0.1283  0.5184  0.7907
   9.500   1.6821   0.00973   0.00608  -0.1280  0.5181  0.7909
   9.550   1.6857   0.00976   0.00612  -0.1279  0.5179  0.7910
   9.600   1.6894   0.00978   0.00615  -0.1277  0.5176  0.7912
   9.650   1.6931   0.00981   0.00619  -0.1275  0.5172  0.7914
   9.700   1.6969   0.00984   0.00623  -0.1273  0.5170  0.7915
   9.750   1.7008   0.00987   0.00627  -0.1272  0.5166  0.7917
   9.800   1.7046   0.00990   0.00630  -0.1270  0.5163  0.7918
   9.850   1.7085   0.00993   0.00634  -0.1268  0.5157  0.7920
   9.900   1.7124   0.00996   0.00637  -0.1267  0.5154  0.7922
   9.950   1.7164   0.00999   0.00641  -0.1266  0.5150  0.7923
  10.000   1.7202   0.01001   0.00644  -0.1264  0.5143  0.7925
  10.050   1.7241   0.01004   0.00648  -0.1263  0.5138  0.7926
  10.100   1.7279   0.01008   0.00652  -0.1261  0.5134  0.7928
  10.150   1.7314   0.01011   0.00657  -0.1259  0.5129  0.7930
  10.200   1.7346   0.01015   0.00661  -0.1257  0.5122  0.7931
  10.250   1.7378   0.01020   0.00666  -0.1254  0.5117  0.7933
  10.300   1.7407   0.01024   0.00671  -0.1251  0.5110  0.7935
  10.350   1.7437   0.01029   0.00676  -0.1248  0.5103  0.7937
  10.400   1.7465   0.01034   0.00681  -0.1245  0.5096  0.7938
  10.450   1.7492   0.01040   0.00687  -0.1242  0.5089  0.7940
  10.500   1.7519   0.01046   0.00693  -0.1238  0.5081  0.7942
  10.550   1.7543   0.01052   0.00699  -0.1234  0.5074  0.7944
  10.600   1.7558   0.01060   0.00707  -0.1229  0.5063  0.7946
  10.650   1.7573   0.01068   0.00716  -0.1223  0.5057  0.7948
  10.700   1.7581   0.01079   0.00726  -0.1217  0.5048  0.7950
  10.750   1.7587   0.01090   0.00737  -0.1210  0.5039  0.7952
  10.800   1.7580   0.01103   0.00751  -0.1201  0.5024  0.7954
  10.850   1.7589   0.01115   0.00762  -0.1195  0.5014  0.7956
  10.900   1.7580   0.01131   0.00777  -0.1186  0.5000  0.7958
  10.950   1.7615   0.01136   0.00785  -0.1184  0.4996  0.7960
  11.000   1.7649   0.01142   0.00793  -0.1182  0.4992  0.7962
  11.050   1.7684   0.01148   0.00799  -0.1181  0.4987  0.7963
  11.100   1.7718   0.01154   0.00806  -0.1179  0.4981  0.7965
  11.150   1.7751   0.01160   0.00813  -0.1177  0.4974  0.7966
  11.200   1.7781   0.01167   0.00821  -0.1175  0.4966  0.7968
  11.250   1.7810   0.01175   0.00829  -0.1172  0.4956  0.7970
  11.300   1.7835   0.01183   0.00838  -0.1169  0.4946  0.7971
  11.350   1.7851   0.01194   0.00850  -0.1164  0.4932  0.7973
  11.400   1.7864   0.01206   0.00862  -0.1159  0.4921  0.7975
  11.450   1.7867   0.01221   0.00877  -0.1153  0.4906  0.7977
  11.500   1.7843   0.01244   0.00900  -0.1142  0.4880  0.7979
  11.550   1.7836   0.01263   0.00918  -0.1134  0.4865  0.7980
  11.600   1.7796   0.01293   0.00948  -0.1121  0.4847  0.7983
  11.650   1.7729   0.01333   0.00987  -0.1105  0.4821  0.7985
  11.700   1.7701   0.01362   0.01016  -0.1094  0.4807  0.7987
  11.750   1.7680   0.01390   0.01044  -0.1085  0.4788  0.7988
  11.800   1.7687   0.01408   0.01062  -0.1080  0.4773  0.7990
  11.850   1.7692   0.01427   0.01081  -0.1074  0.4759  0.7991
  11.900   1.7654   0.01462   0.01117  -0.1063  0.4733  0.7993
  11.950   1.7619   0.01498   0.01152  -0.1052  0.4711  0.7994
  12.000   1.7595   0.01530   0.01184  -0.1043  0.4694  0.7996
