  
       XFOIL         Version 6.94
  
 Calculated polar for: 1080                                            
  
 1 1 Reynolds number fixed          Mach number fixed         
  
 xtrf =   1.000 (top)        1.000 (bottom)  
 Mach =   0.000     Re =     2.000 e 6     Ncrit =   9.000
  
  alpha     CL        CD       CDp       CM    Top_Xtr Bot_Xtr
 ------- -------- --------- --------- -------- ------- -------
   6.000   1.3131   0.00809   0.00416  -0.1233  0.5392  0.7799
   6.050   1.3175   0.00809   0.00416  -0.1232  0.5390  0.7800
   6.100   1.3219   0.00809   0.00416  -0.1230  0.5389  0.7801
   6.150   1.3263   0.00808   0.00416  -0.1229  0.5388  0.7802
   6.200   1.3309   0.00808   0.00416  -0.1228  0.5387  0.7804
   6.250   1.3352   0.00807   0.00416  -0.1226  0.5385  0.7806
   6.300   1.3398   0.00807   0.00417  -0.1225  0.5384  0.7808
   6.350   1.3444   0.00807   0.00417  -0.1224  0.5382  0.7810
   6.400   1.3489   0.00807   0.00417  -0.1223  0.5380  0.7811
   6.450   1.3535   0.00807   0.00418  -0.1222  0.5378  0.7813
   6.500   1.3580   0.00807   0.00418  -0.1221  0.5376  0.7815
   6.550   1.3626   0.00807   0.00419  -0.1220  0.5374  0.7817
   6.600   1.3672   0.00807   0.00419  -0.1219  0.5372  0.7819
   6.650   1.3718   0.00807   0.00420  -0.1218  0.5370  0.7821
   6.700   1.3763   0.00807   0.00420  -0.1217  0.5368  0.7823
   6.750   1.3807   0.00807   0.00421  -0.1215  0.5365  0.7825
   6.800   1.3852   0.00808   0.00422  -0.1214  0.5363  0.7827
   6.850   1.3896   0.00808   0.00423  -0.1213  0.5360  0.7830
   6.900   1.3940   0.00808   0.00423  -0.1212  0.5357  0.7832
   6.950   1.3985   0.00808   0.00424  -0.1211  0.5355  0.7834
   7.000   1.4030   0.00809   0.00425  -0.1209  0.5352  0.7836
   7.050   1.4075   0.00809   0.00426  -0.1208  0.5349  0.7839
   7.100   1.4120   0.00810   0.00427  -0.1207  0.5346  0.7841
   7.150   1.4165   0.00810   0.00427  -0.1206  0.5343  0.7843
   7.200   1.4210   0.00811   0.00428  -0.1205  0.5339  0.7845
   7.250   1.4255   0.00811   0.00429  -0.1204  0.5337  0.7847
   7.300   1.4301   0.00812   0.00432  -0.1203  0.5333  0.7849
   7.350   1.4346   0.00812   0.00432  -0.1202  0.5330  0.7851
   7.400   1.4392   0.00813   0.00433  -0.1201  0.5327  0.7853
   7.450   1.4437   0.00813   0.00434  -0.1200  0.5322  0.7855
   7.500   1.4482   0.00814   0.00435  -0.1199  0.5319  0.7857
   7.550   1.4528   0.00814   0.00436  -0.1198  0.5315  0.7859
   7.600   1.4573   0.00815   0.00437  -0.1197  0.5312  0.7861
   7.650   1.4617   0.00815   0.00438  -0.1196  0.5308  0.7862
   7.700   1.4662   0.00816   0.00440  -0.1195  0.5304  0.7864
   7.750   1.4703   0.00817   0.00440  -0.1193  0.5299  0.7866
   7.800   1.4745   0.00818   0.00442  -0.1192  0.5296  0.7867
   7.850   1.4787   0.00820   0.00444  -0.1190  0.5292  0.7869
   7.900   1.4826   0.00821   0.00445  -0.1188  0.5287  0.7871
   7.950   1.4864   0.00822   0.00446  -0.1185  0.5282  0.7873
   8.000   1.4903   0.00824   0.00448  -0.1183  0.5278  0.7874
   8.050   1.4943   0.00825   0.00450  -0.1181  0.5274  0.7876
   8.100   1.4980   0.00827   0.00452  -0.1179  0.5268  0.7878
   8.150   1.5017   0.00829   0.00454  -0.1176  0.5263  0.7880
   8.200   1.5054   0.00831   0.00456  -0.1174  0.5257  0.7881
   8.250   1.5090   0.00833   0.00458  -0.1171  0.5252  0.7883
   8.300   1.5127   0.00836   0.00461  -0.1169  0.5245  0.7885
   8.350   1.5164   0.00838   0.00463  -0.1166  0.5239  0.7886
   8.400   1.5202   0.00841   0.00466  -0.1164  0.5233  0.7888
   8.450   1.5238   0.00844   0.00470  -0.1161  0.5225  0.7890
   8.500   1.5278   0.00847   0.00473  -0.1160  0.5218  0.7891
   8.550   1.5319   0.00851   0.00476  -0.1158  0.5211  0.7893
   8.600   1.5360   0.00854   0.00479  -0.1157  0.5202  0.7895
   8.650   1.5405   0.00856   0.00482  -0.1156  0.5199  0.7896
   8.700   1.5450   0.00857   0.00484  -0.1155  0.5197  0.7898
   8.750   1.5495   0.00858   0.00486  -0.1154  0.5195  0.7899
   8.800   1.5540   0.00859   0.00488  -0.1153  0.5193  0.7901
   8.850   1.5586   0.00861   0.00490  -0.1153  0.5191  0.7902
   8.900   1.5631   0.00862   0.00493  -0.1152  0.5188  0.7904
   8.950   1.5676   0.00863   0.00495  -0.1151  0.5185  0.7905
   9.000   1.5722   0.00865   0.00497  -0.1151  0.5183  0.7907
   9.050   1.5767   0.00866   0.00500  -0.1150  0.5179  0.7909
   9.100   1.5811   0.00868   0.00502  -0.1149  0.5175  0.7910
   9.150   1.5855   0.00870   0.00504  -0.1148  0.5171  0.7912
   9.200   1.5898   0.00871   0.00507  -0.1147  0.5166  0.7913
   9.250   1.5940   0.00873   0.00509  -0.1146  0.5160  0.7915
   9.300   1.5982   0.00875   0.00512  -0.1144  0.5156  0.7917
   9.350   1.6024   0.00877   0.00515  -0.1143  0.5149  0.7918
   9.400   1.6065   0.00879   0.00517  -0.1142  0.5142  0.7920
   9.450   1.6104   0.00881   0.00520  -0.1140  0.5135  0.7922
   9.500   1.6143   0.00883   0.00523  -0.1138  0.5128  0.7923
   9.550   1.6180   0.00886   0.00526  -0.1136  0.5119  0.7925
   9.600   1.6217   0.00889   0.00529  -0.1134  0.5111  0.7927
   9.650   1.6253   0.00891   0.00532  -0.1131  0.5103  0.7929
   9.700   1.6285   0.00895   0.00535  -0.1128  0.5093  0.7931
   9.750   1.6318   0.00898   0.00539  -0.1125  0.5084  0.7932
   9.800   1.6346   0.00902   0.00543  -0.1121  0.5073  0.7934
   9.850   1.6362   0.00908   0.00548  -0.1115  0.5057  0.7936
   9.900   1.6382   0.00914   0.00553  -0.1110  0.5047  0.7938
   9.950   1.6391   0.00921   0.00560  -0.1103  0.5034  0.7941
  10.000   1.6401   0.00929   0.00568  -0.1096  0.5021  0.7943
  10.050   1.6405   0.00938   0.00576  -0.1088  0.5005  0.7945
  10.100   1.6436   0.00942   0.00582  -0.1085  0.4997  0.7947
  10.150   1.6478   0.00945   0.00585  -0.1084  0.4991  0.7949
  10.200   1.6519   0.00949   0.00589  -0.1083  0.4986  0.7950
  10.250   1.6558   0.00952   0.00594  -0.1081  0.4976  0.7952
  10.300   1.6596   0.00956   0.00598  -0.1079  0.4968  0.7954
  10.350   1.6631   0.00960   0.00603  -0.1077  0.4957  0.7955
  10.400   1.6662   0.00965   0.00608  -0.1074  0.4946  0.7957
  10.450   1.6683   0.00972   0.00615  -0.1069  0.4929  0.7959
  10.500   1.6702   0.00979   0.00624  -0.1064  0.4913  0.7961
  10.550   1.6707   0.00990   0.00634  -0.1057  0.4891  0.7963
  10.600   1.6717   0.00999   0.00643  -0.1050  0.4875  0.7965
  10.650   1.6712   0.01012   0.00655  -0.1041  0.4853  0.7967
  10.700   1.6658   0.01036   0.00677  -0.1024  0.4818  0.7970
  10.750   1.6642   0.01052   0.00693  -0.1013  0.4799  0.7973
  10.800   1.6663   0.01061   0.00702  -0.1009  0.4784  0.7974
  10.850   1.6675   0.01072   0.00713  -0.1003  0.4763  0.7976
  10.900   1.6676   0.01086   0.00726  -0.0995  0.4739  0.7978
  10.950   1.6658   0.01105   0.00745  -0.0985  0.4711  0.7980
  11.000   1.6600   0.01135   0.00773  -0.0968  0.4672  0.7983
  11.050   1.6577   0.01158   0.00795  -0.0957  0.4650  0.7985
  11.100   1.6469   0.01206   0.00841  -0.0932  0.4607  0.7987
  11.150   1.6451   0.01229   0.00864  -0.0923  0.4582  0.7989
  11.200   1.6470   0.01241   0.00876  -0.0918  0.4576  0.7990
  11.250   1.6423   0.01274   0.00909  -0.0904  0.4541  0.7992
  11.300   1.6387   0.01305   0.00939  -0.0892  0.4511  0.7994
  11.350   1.6287   0.01360   0.00993  -0.0871  0.4471  0.7996
  11.400   1.6232   0.01401   0.01033  -0.0857  0.4447  0.7998
  11.450   1.6170   0.01447   0.01079  -0.0842  0.4427  0.7999
  11.500   1.6085   0.01503   0.01134  -0.0825  0.4390  0.8004
  11.550   1.6055   0.01539   0.01171  -0.0815  0.4370  0.8010
  11.600   1.6031   0.01573   0.01204  -0.0806  0.4349  0.8016
  11.650   1.6005   0.01608   0.01240  -0.0797  0.4330  0.8022
  11.700   1.5893   0.01683   0.01314  -0.0777  0.4290  0.8030
  11.750   1.5785   0.01759   0.01390  -0.0758  0.4260  0.8038
  11.800   1.5730   0.01811   0.01443  -0.0746  0.4243  0.8044
  11.850   1.5546   0.01930   0.01561  -0.0719  0.4197  0.8053
  11.900   1.5529   0.01965   0.01596  -0.0711  0.4180  0.8057
  11.950   1.5511   0.02001   0.01634  -0.0704  0.4168  0.8063
  12.000   1.5428   0.02072   0.01705  -0.0690  0.4137  0.8068
