  
       XFOIL         Version 6.94
  
 Calculated polar for: 1080                                            
  
 1 1 Reynolds number fixed          Mach number fixed         
  
 xtrf =   1.000 (top)        1.000 (bottom)  
 Mach =   0.000     Re =     2.000 e 6     Ncrit =   9.000
  
  alpha     CL        CD       CDp       CM    Top_Xtr Bot_Xtr
 ------- -------- --------- --------- -------- ------- -------
   6.000   1.3844   0.00831   0.00438  -0.1372  0.5387  0.7840
   6.050   1.3889   0.00831   0.00439  -0.1371  0.5386  0.7842
   6.100   1.3935   0.00832   0.00439  -0.1370  0.5385  0.7843
   6.150   1.3981   0.00832   0.00440  -0.1369  0.5383  0.7844
   6.200   1.4026   0.00832   0.00441  -0.1367  0.5382  0.7846
   6.250   1.4072   0.00832   0.00441  -0.1367  0.5381  0.7847
   6.300   1.4118   0.00832   0.00442  -0.1365  0.5379  0.7849
   6.350   1.4164   0.00833   0.00443  -0.1365  0.5378  0.7850
   6.400   1.4209   0.00833   0.00444  -0.1364  0.5376  0.7851
   6.450   1.4255   0.00833   0.00444  -0.1362  0.5375  0.7853
   6.500   1.4301   0.00834   0.00445  -0.1362  0.5373  0.7854
   6.550   1.4347   0.00834   0.00446  -0.1361  0.5371  0.7856
   6.600   1.4392   0.00834   0.00446  -0.1360  0.5369  0.7857
   6.650   1.4438   0.00835   0.00447  -0.1359  0.5367  0.7858
   6.700   1.4484   0.00835   0.00448  -0.1358  0.5365  0.7860
   6.750   1.4530   0.00835   0.00449  -0.1357  0.5363  0.7861
   6.800   1.4576   0.00836   0.00450  -0.1356  0.5361  0.7862
   6.850   1.4621   0.00836   0.00451  -0.1355  0.5358  0.7864
   6.900   1.4665   0.00836   0.00451  -0.1354  0.5356  0.7865
   6.950   1.4710   0.00837   0.00452  -0.1353  0.5353  0.7867
   7.000   1.4754   0.00837   0.00453  -0.1352  0.5351  0.7868
   7.050   1.4799   0.00838   0.00454  -0.1350  0.5348  0.7869
   7.100   1.4844   0.00838   0.00455  -0.1349  0.5346  0.7871
   7.150   1.4888   0.00839   0.00456  -0.1348  0.5343  0.7872
   7.200   1.4933   0.00839   0.00457  -0.1347  0.5340  0.7873
   7.250   1.4977   0.00840   0.00458  -0.1346  0.5337  0.7875
   7.300   1.5022   0.00840   0.00458  -0.1345  0.5334  0.7876
   7.350   1.5068   0.00841   0.00460  -0.1344  0.5331  0.7878
   7.400   1.5112   0.00841   0.00460  -0.1343  0.5328  0.7879
   7.450   1.5157   0.00842   0.00461  -0.1342  0.5325  0.7880
   7.500   1.5202   0.00842   0.00463  -0.1341  0.5322  0.7882
   7.550   1.5247   0.00843   0.00464  -0.1340  0.5319  0.7883
   7.600   1.5293   0.00844   0.00465  -0.1339  0.5316  0.7884
   7.650   1.5337   0.00844   0.00466  -0.1338  0.5312  0.7886
   7.700   1.5382   0.00845   0.00467  -0.1337  0.5309  0.7887
   7.750   1.5427   0.00846   0.00469  -0.1336  0.5306  0.7888
   7.800   1.5471   0.00846   0.00470  -0.1335  0.5302  0.7890
   7.850   1.5515   0.00847   0.00471  -0.1334  0.5299  0.7891
   7.900   1.5557   0.00848   0.00472  -0.1332  0.5295  0.7893
   7.950   1.5598   0.00849   0.00473  -0.1331  0.5292  0.7894
   8.000   1.5639   0.00850   0.00475  -0.1329  0.5288  0.7895
   8.050   1.5678   0.00852   0.00476  -0.1327  0.5283  0.7897
   8.100   1.5716   0.00853   0.00478  -0.1325  0.5279  0.7898
   8.150   1.5755   0.00855   0.00480  -0.1322  0.5275  0.7900
   8.200   1.5790   0.00856   0.00481  -0.1320  0.5270  0.7901
   8.250   1.5828   0.00858   0.00483  -0.1317  0.5265  0.7903
   8.300   1.5864   0.00860   0.00485  -0.1315  0.5260  0.7904
   8.350   1.5903   0.00862   0.00487  -0.1313  0.5256  0.7906
   8.400   1.5939   0.00864   0.00490  -0.1310  0.5249  0.7907
   8.450   1.5976   0.00867   0.00492  -0.1308  0.5244  0.7909
   8.500   1.6015   0.00870   0.00495  -0.1306  0.5239  0.7910
   8.550   1.6051   0.00873   0.00498  -0.1303  0.5231  0.7912
   8.600   1.6091   0.00876   0.00502  -0.1302  0.5224  0.7913
   8.650   1.6131   0.00879   0.00505  -0.1300  0.5218  0.7915
   8.700   1.6173   0.00883   0.00509  -0.1299  0.5210  0.7916
   8.750   1.6217   0.00886   0.00512  -0.1298  0.5204  0.7918
   8.800   1.6261   0.00889   0.00515  -0.1297  0.5199  0.7919
   8.850   1.6305   0.00890   0.00517  -0.1296  0.5198  0.7921
   8.900   1.6348   0.00891   0.00519  -0.1295  0.5196  0.7922
   8.950   1.6393   0.00893   0.00522  -0.1295  0.5195  0.7924
   9.000   1.6437   0.00894   0.00524  -0.1294  0.5193  0.7925
   9.050   1.6481   0.00895   0.00526  -0.1293  0.5191  0.7927
   9.100   1.6526   0.00896   0.00528  -0.1292  0.5189  0.7928
   9.150   1.6569   0.00898   0.00530  -0.1291  0.5186  0.7930
   9.200   1.6614   0.00899   0.00533  -0.1290  0.5183  0.7931
   9.250   1.6658   0.00901   0.00536  -0.1290  0.5180  0.7933
   9.300   1.6701   0.00903   0.00538  -0.1289  0.5177  0.7934
   9.350   1.6743   0.00904   0.00540  -0.1287  0.5173  0.7936
   9.400   1.6785   0.00906   0.00543  -0.1286  0.5170  0.7937
   9.450   1.6826   0.00908   0.00546  -0.1285  0.5165  0.7939
   9.500   1.6867   0.00910   0.00549  -0.1283  0.5161  0.7940
   9.550   1.6908   0.00912   0.00552  -0.1282  0.5158  0.7942
   9.600   1.6948   0.00914   0.00554  -0.1281  0.5152  0.7944
   9.650   1.6989   0.00916   0.00557  -0.1279  0.5147  0.7945
   9.700   1.7030   0.00919   0.00560  -0.1278  0.5142  0.7947
   9.750   1.7070   0.00921   0.00563  -0.1276  0.5135  0.7948
   9.800   1.7109   0.00923   0.00566  -0.1275  0.5127  0.7950
   9.850   1.7146   0.00926   0.00569  -0.1273  0.5119  0.7952
   9.900   1.7183   0.00928   0.00572  -0.1271  0.5112  0.7953
   9.950   1.7219   0.00931   0.00575  -0.1268  0.5104  0.7955
  10.000   1.7253   0.00935   0.00578  -0.1266  0.5096  0.7956
  10.050   1.7286   0.00938   0.00582  -0.1263  0.5087  0.7958
  10.100   1.7314   0.00942   0.00586  -0.1259  0.5077  0.7960
  10.150   1.7341   0.00947   0.00591  -0.1256  0.5069  0.7962
  10.200   1.7357   0.00953   0.00597  -0.1250  0.5057  0.7963
  10.250   1.7372   0.00960   0.00603  -0.1244  0.5047  0.7965
  10.300   1.7389   0.00967   0.00610  -0.1238  0.5038  0.7967
  10.350   1.7393   0.00976   0.00619  -0.1230  0.5023  0.7969
  10.400   1.7402   0.00984   0.00627  -0.1223  0.5010  0.7971
  10.450   1.7421   0.00992   0.00635  -0.1218  0.4999  0.7973
  10.500   1.7464   0.00995   0.00639  -0.1218  0.4994  0.7974
  10.550   1.7506   0.00998   0.00643  -0.1217  0.4987  0.7975
  10.600   1.7544   0.01002   0.00649  -0.1215  0.4979  0.7977
  10.650   1.7578   0.01006   0.00654  -0.1213  0.4972  0.7978
  10.700   1.7612   0.01011   0.00660  -0.1211  0.4965  0.7980
  10.750   1.7639   0.01017   0.00666  -0.1207  0.4951  0.7981
  10.800   1.7665   0.01023   0.00672  -0.1204  0.4940  0.7983
  10.850   1.7687   0.01030   0.00680  -0.1199  0.4925  0.7984
  10.900   1.7706   0.01038   0.00688  -0.1194  0.4909  0.7986
  10.950   1.7718   0.01048   0.00697  -0.1188  0.4892  0.7987
  11.000   1.7725   0.01059   0.00708  -0.1181  0.4874  0.7989
  11.050   1.7707   0.01075   0.00724  -0.1171  0.4854  0.7990
  11.100   1.7671   0.01097   0.00744  -0.1157  0.4829  0.7992
  11.150   1.7656   0.01115   0.00762  -0.1146  0.4811  0.7993
  11.200   1.7653   0.01131   0.00777  -0.1138  0.4792  0.7995
  11.250   1.7664   0.01143   0.00789  -0.1133  0.4777  0.7996
  11.300   1.7670   0.01156   0.00803  -0.1126  0.4760  0.7997
  11.350   1.7665   0.01173   0.00820  -0.1118  0.4737  0.7998
  11.400   1.7629   0.01200   0.00846  -0.1105  0.4701  0.8000
  11.450   1.7595   0.01226   0.00872  -0.1093  0.4679  0.8005
  11.500   1.7533   0.01262   0.00907  -0.1076  0.4649  0.8012
  11.550   1.7470   0.01301   0.00945  -0.1060  0.4625  0.8019
  11.600   1.7408   0.01341   0.00985  -0.1044  0.4598  0.8026
  11.650   1.7387   0.01368   0.01012  -0.1034  0.4574  0.8032
  11.700   1.7356   0.01400   0.01044  -0.1024  0.4551  0.8038
  11.750   1.7319   0.01435   0.01079  -0.1012  0.4525  0.8044
  11.800   1.7282   0.01471   0.01116  -0.1001  0.4506  0.8050
  11.850   1.7133   0.01556   0.01200  -0.0975  0.4461  0.8058
  11.900   1.6993   0.01643   0.01285  -0.0951  0.4426  0.8066
  11.950   1.6875   0.01725   0.01367  -0.0931  0.4392  0.8072
  12.000   1.6859   0.01759   0.01402  -0.0924  0.4377  0.8077
