  
       XFOIL         Version 6.94
  
 Calculated polar for: 1080                                            
  
 1 1 Reynolds number fixed          Mach number fixed         
  
 xtrf =   1.000 (top)        1.000 (bottom)  
 Mach =   0.000     Re =     2.000 e 6     Ncrit =   9.000
  
  alpha     CL        CD       CDp       CM    Top_Xtr Bot_Xtr
 ------- -------- --------- --------- -------- ------- -------
   6.000   1.3180   0.00805   0.00412  -0.1244  0.5392  0.7808
   6.050   1.3224   0.00804   0.00411  -0.1242  0.5391  0.7810
   6.100   1.3266   0.00803   0.00411  -0.1241  0.5389  0.7812
   6.150   1.3311   0.00803   0.00411  -0.1239  0.5388  0.7813
   6.200   1.3355   0.00802   0.00411  -0.1238  0.5387  0.7815
   6.250   1.3400   0.00802   0.00411  -0.1237  0.5385  0.7817
   6.300   1.3444   0.00802   0.00411  -0.1235  0.5383  0.7819
   6.350   1.3490   0.00802   0.00412  -0.1234  0.5382  0.7821
   6.400   1.3535   0.00802   0.00412  -0.1233  0.5380  0.7823
   6.450   1.3580   0.00802   0.00412  -0.1232  0.5378  0.7824
   6.500   1.3625   0.00801   0.00413  -0.1230  0.5376  0.7826
   6.550   1.3671   0.00801   0.00413  -0.1229  0.5374  0.7828
   6.600   1.3716   0.00801   0.00414  -0.1228  0.5372  0.7831
   6.650   1.3763   0.00802   0.00415  -0.1227  0.5370  0.7833
   6.700   1.3809   0.00802   0.00415  -0.1227  0.5368  0.7835
   6.750   1.3855   0.00802   0.00416  -0.1226  0.5365  0.7837
   6.800   1.3900   0.00802   0.00417  -0.1224  0.5362  0.7839
   6.850   1.3945   0.00802   0.00417  -0.1223  0.5359  0.7841
   6.900   1.3991   0.00803   0.00418  -0.1222  0.5357  0.7843
   6.950   1.4035   0.00803   0.00419  -0.1221  0.5354  0.7846
   7.000   1.4080   0.00803   0.00420  -0.1220  0.5351  0.7848
   7.050   1.4125   0.00804   0.00421  -0.1219  0.5348  0.7850
   7.100   1.4170   0.00805   0.00422  -0.1218  0.5345  0.7852
   7.150   1.4215   0.00805   0.00423  -0.1216  0.5342  0.7853
   7.200   1.4260   0.00806   0.00424  -0.1215  0.5339  0.7855
   7.250   1.4304   0.00806   0.00426  -0.1214  0.5335  0.7857
   7.300   1.4349   0.00806   0.00426  -0.1213  0.5331  0.7859
   7.350   1.4395   0.00807   0.00428  -0.1212  0.5329  0.7861
   7.400   1.4440   0.00808   0.00429  -0.1211  0.5325  0.7863
   7.450   1.4486   0.00808   0.00430  -0.1210  0.5322  0.7864
   7.500   1.4530   0.00808   0.00430  -0.1209  0.5317  0.7866
   7.550   1.4576   0.00809   0.00432  -0.1208  0.5314  0.7868
   7.600   1.4621   0.00810   0.00433  -0.1207  0.5310  0.7869
   7.650   1.4666   0.00811   0.00434  -0.1206  0.5307  0.7871
   7.700   1.4708   0.00811   0.00434  -0.1204  0.5301  0.7872
   7.750   1.4755   0.00812   0.00436  -0.1204  0.5299  0.7874
   7.800   1.4798   0.00813   0.00437  -0.1202  0.5294  0.7875
   7.850   1.4840   0.00814   0.00439  -0.1201  0.5289  0.7877
   7.900   1.4881   0.00816   0.00440  -0.1199  0.5285  0.7879
   7.950   1.4921   0.00817   0.00442  -0.1197  0.5281  0.7880
   8.000   1.4956   0.00819   0.00443  -0.1194  0.5275  0.7882
   8.050   1.4996   0.00820   0.00445  -0.1192  0.5271  0.7884
   8.100   1.5030   0.00822   0.00447  -0.1189  0.5265  0.7885
   8.150   1.5068   0.00824   0.00449  -0.1186  0.5260  0.7887
   8.200   1.5102   0.00826   0.00451  -0.1183  0.5253  0.7889
   8.250   1.5138   0.00829   0.00454  -0.1180  0.5248  0.7891
   8.300   1.5176   0.00831   0.00456  -0.1178  0.5242  0.7892
   8.350   1.5211   0.00834   0.00459  -0.1175  0.5235  0.7894
   8.400   1.5249   0.00837   0.00462  -0.1173  0.5228  0.7895
   8.450   1.5287   0.00840   0.00466  -0.1171  0.5221  0.7897
   8.500   1.5325   0.00843   0.00469  -0.1169  0.5212  0.7899
   8.550   1.5368   0.00847   0.00472  -0.1168  0.5205  0.7900
   8.600   1.5411   0.00849   0.00475  -0.1166  0.5199  0.7902
   8.650   1.5456   0.00850   0.00477  -0.1166  0.5198  0.7903
   8.700   1.5502   0.00852   0.00479  -0.1165  0.5196  0.7905
   8.750   1.5547   0.00853   0.00481  -0.1164  0.5194  0.7906
   8.800   1.5593   0.00854   0.00483  -0.1164  0.5191  0.7908
   8.850   1.5639   0.00855   0.00486  -0.1163  0.5190  0.7909
   8.900   1.5685   0.00857   0.00488  -0.1162  0.5187  0.7911
   8.950   1.5730   0.00858   0.00490  -0.1162  0.5184  0.7913
   9.000   1.5776   0.00859   0.00492  -0.1161  0.5179  0.7914
   9.050   1.5822   0.00861   0.00494  -0.1160  0.5176  0.7916
   9.100   1.5868   0.00862   0.00496  -0.1160  0.5171  0.7917
   9.150   1.5914   0.00863   0.00499  -0.1159  0.5167  0.7919
   9.200   1.5959   0.00865   0.00501  -0.1159  0.5161  0.7920
   9.250   1.6005   0.00866   0.00503  -0.1158  0.5157  0.7922
   9.300   1.6049   0.00868   0.00505  -0.1157  0.5150  0.7924
   9.350   1.6091   0.00870   0.00508  -0.1156  0.5143  0.7925
   9.400   1.6131   0.00872   0.00511  -0.1154  0.5136  0.7927
   9.450   1.6170   0.00874   0.00513  -0.1152  0.5129  0.7929
   9.500   1.6207   0.00877   0.00516  -0.1150  0.5121  0.7930
   9.550   1.6243   0.00879   0.00519  -0.1148  0.5113  0.7932
   9.600   1.6276   0.00882   0.00523  -0.1145  0.5103  0.7934
   9.650   1.6307   0.00886   0.00526  -0.1141  0.5093  0.7936
   9.700   1.6337   0.00889   0.00529  -0.1138  0.5082  0.7938
   9.750   1.6364   0.00893   0.00533  -0.1134  0.5071  0.7940
   9.800   1.6388   0.00898   0.00538  -0.1129  0.5059  0.7942
   9.850   1.6404   0.00904   0.00543  -0.1123  0.5045  0.7944
   9.900   1.6422   0.00910   0.00549  -0.1117  0.5032  0.7946
   9.950   1.6439   0.00917   0.00555  -0.1111  0.5021  0.7948
  10.000   1.6440   0.00926   0.00564  -0.1103  0.5004  0.7950
  10.050   1.6471   0.00930   0.00569  -0.1100  0.4996  0.7952
  10.100   1.6512   0.00933   0.00573  -0.1098  0.4991  0.7954
  10.150   1.6552   0.00936   0.00577  -0.1097  0.4984  0.7955
  10.200   1.6590   0.00940   0.00581  -0.1095  0.4976  0.7957
  10.250   1.6627   0.00944   0.00586  -0.1093  0.4967  0.7959
  10.300   1.6661   0.00948   0.00590  -0.1091  0.4955  0.7960
  10.350   1.6693   0.00953   0.00595  -0.1088  0.4943  0.7962
  10.400   1.6716   0.00959   0.00602  -0.1084  0.4922  0.7964
  10.450   1.6737   0.00966   0.00610  -0.1079  0.4905  0.7966
  10.500   1.6753   0.00974   0.00618  -0.1073  0.4890  0.7968
  10.550   1.6739   0.00988   0.00631  -0.1062  0.4864  0.7970
  10.600   1.6716   0.01004   0.00645  -0.1050  0.4837  0.7972
  10.650   1.6712   0.01017   0.00658  -0.1041  0.4819  0.7974
  10.700   1.6692   0.01034   0.00674  -0.1029  0.4791  0.7977
  10.750   1.6702   0.01045   0.00685  -0.1023  0.4771  0.7978
  10.800   1.6700   0.01059   0.00698  -0.1015  0.4745  0.7980
  10.850   1.6701   0.01072   0.00711  -0.1007  0.4722  0.7982
  10.900   1.6696   0.01088   0.00726  -0.0998  0.4699  0.7984
  10.950   1.6615   0.01123   0.00760  -0.0978  0.4655  0.7987
  11.000   1.6592   0.01145   0.00781  -0.0966  0.4635  0.7988
  11.050   1.6522   0.01181   0.00816  -0.0948  0.4600  0.7991
  11.100   1.6503   0.01204   0.00838  -0.0938  0.4573  0.7992
  11.150   1.6498   0.01223   0.00857  -0.0930  0.4553  0.7994
  11.200   1.6466   0.01251   0.00884  -0.0918  0.4524  0.7995
  11.250   1.6436   0.01279   0.00912  -0.0906  0.4501  0.7997
  11.300   1.6387   0.01315   0.00947  -0.0893  0.4474  0.7998
  11.400   1.6192   0.01427   0.01057  -0.0852  0.4406  0.8009
  11.450   1.6159   0.01462   0.01092  -0.0841  0.4382  0.8015
  11.500   1.6143   0.01490   0.01121  -0.0833  0.4362  0.8021
  11.550   1.6116   0.01524   0.01155  -0.0823  0.4342  0.8027
  11.600   1.6068   0.01568   0.01200  -0.0811  0.4317  0.8033
  11.650   1.5977   0.01633   0.01264  -0.0794  0.4283  0.8041
  11.700   1.5880   0.01702   0.01333  -0.0776  0.4254  0.8048
  11.750   1.5735   0.01798   0.01428  -0.0753  0.4218  0.8056
  11.800   1.5675   0.01854   0.01484  -0.0740  0.4195  0.8062
  11.850   1.5643   0.01898   0.01529  -0.0731  0.4178  0.8067
  11.900   1.5608   0.01942   0.01574  -0.0722  0.4157  0.8072
  11.950   1.5563   0.01992   0.01624  -0.0712  0.4135  0.8077
  12.000   1.5479   0.02063   0.01696  -0.0697  0.4109  0.8082
