  
       XFOIL         Version 6.94
  
 Calculated polar for: 1080                                            
  
 1 1 Reynolds number fixed          Mach number fixed         
  
 xtrf =   1.000 (top)        1.000 (bottom)  
 Mach =   0.000     Re =     2.000 e 6     Ncrit =   9.000
  
  alpha     CL        CD       CDp       CM    Top_Xtr Bot_Xtr
 ------- -------- --------- --------- -------- ------- -------
   6.000   1.3593   0.00813   0.00420  -0.1326  0.5390  0.7843
   6.050   1.3637   0.00813   0.00420  -0.1324  0.5389  0.7844
   6.100   1.3680   0.00812   0.00420  -0.1322  0.5388  0.7845
   6.150   1.3723   0.00812   0.00420  -0.1321  0.5386  0.7847
   6.200   1.3766   0.00811   0.00420  -0.1319  0.5385  0.7849
   6.250   1.3810   0.00811   0.00420  -0.1318  0.5383  0.7850
   6.300   1.3854   0.00810   0.00420  -0.1316  0.5382  0.7851
   6.350   1.3898   0.00810   0.00421  -0.1315  0.5380  0.7853
   6.400   1.3943   0.00810   0.00421  -0.1313  0.5379  0.7854
   6.450   1.3988   0.00810   0.00422  -0.1312  0.5377  0.7856
   6.500   1.4033   0.00810   0.00422  -0.1311  0.5375  0.7857
   6.550   1.4078   0.00810   0.00423  -0.1310  0.5373  0.7859
   6.600   1.4123   0.00810   0.00423  -0.1309  0.5371  0.7860
   6.650   1.4169   0.00811   0.00424  -0.1308  0.5369  0.7861
   6.700   1.4215   0.00811   0.00425  -0.1307  0.5366  0.7863
   6.750   1.4260   0.00811   0.00425  -0.1306  0.5364  0.7864
   6.800   1.4306   0.00811   0.00426  -0.1305  0.5361  0.7866
   6.850   1.4353   0.00812   0.00427  -0.1304  0.5359  0.7867
   6.900   1.4399   0.00812   0.00428  -0.1303  0.5356  0.7868
   6.950   1.4446   0.00813   0.00429  -0.1302  0.5353  0.7870
   7.000   1.4491   0.00813   0.00429  -0.1301  0.5350  0.7871
   7.050   1.4537   0.00813   0.00430  -0.1300  0.5347  0.7873
   7.100   1.4582   0.00813   0.00431  -0.1299  0.5344  0.7874
   7.150   1.4627   0.00814   0.00432  -0.1298  0.5341  0.7875
   7.200   1.4671   0.00814   0.00433  -0.1297  0.5338  0.7877
   7.250   1.4717   0.00815   0.00434  -0.1296  0.5336  0.7878
   7.300   1.4761   0.00816   0.00435  -0.1294  0.5332  0.7880
   7.350   1.4805   0.00816   0.00437  -0.1293  0.5329  0.7881
   7.400   1.4850   0.00816   0.00437  -0.1292  0.5325  0.7882
   7.450   1.4895   0.00817   0.00439  -0.1291  0.5322  0.7884
   7.500   1.4941   0.00818   0.00440  -0.1290  0.5319  0.7885
   7.550   1.4985   0.00819   0.00441  -0.1289  0.5315  0.7887
   7.600   1.5030   0.00819   0.00442  -0.1288  0.5312  0.7888
   7.650   1.5074   0.00820   0.00443  -0.1287  0.5308  0.7889
   7.700   1.5119   0.00820   0.00444  -0.1286  0.5304  0.7891
   7.750   1.5163   0.00821   0.00445  -0.1284  0.5301  0.7892
   7.800   1.5205   0.00822   0.00446  -0.1283  0.5296  0.7894
   7.850   1.5250   0.00823   0.00447  -0.1282  0.5292  0.7895
   7.900   1.5291   0.00824   0.00448  -0.1280  0.5287  0.7897
   7.950   1.5335   0.00825   0.00450  -0.1279  0.5283  0.7898
   8.000   1.5376   0.00827   0.00451  -0.1277  0.5279  0.7899
   8.050   1.5416   0.00828   0.00453  -0.1275  0.5274  0.7901
   8.100   1.5455   0.00830   0.00455  -0.1273  0.5269  0.7902
   8.150   1.5492   0.00832   0.00457  -0.1271  0.5264  0.7904
   8.200   1.5527   0.00834   0.00459  -0.1268  0.5259  0.7906
   8.250   1.5563   0.00836   0.00461  -0.1265  0.5254  0.7907
   8.300   1.5600   0.00838   0.00463  -0.1262  0.5249  0.7909
   8.350   1.5633   0.00841   0.00466  -0.1259  0.5241  0.7910
   8.400   1.5668   0.00844   0.00469  -0.1256  0.5235  0.7912
   8.450   1.5704   0.00847   0.00472  -0.1254  0.5227  0.7914
   8.500   1.5746   0.00849   0.00475  -0.1252  0.5222  0.7915
   8.550   1.5784   0.00853   0.00479  -0.1250  0.5213  0.7917
   8.600   1.5825   0.00856   0.00482  -0.1249  0.5206  0.7918
   8.650   1.5869   0.00859   0.00485  -0.1248  0.5200  0.7920
   8.700   1.5913   0.00860   0.00487  -0.1247  0.5198  0.7921
   8.750   1.5958   0.00861   0.00489  -0.1246  0.5196  0.7923
   8.800   1.6003   0.00863   0.00491  -0.1245  0.5195  0.7924
   8.850   1.6048   0.00864   0.00493  -0.1244  0.5192  0.7926
   8.900   1.6093   0.00865   0.00495  -0.1244  0.5190  0.7927
   8.950   1.6139   0.00866   0.00498  -0.1243  0.5188  0.7929
   9.000   1.6184   0.00867   0.00500  -0.1242  0.5185  0.7930
   9.050   1.6230   0.00869   0.00502  -0.1242  0.5182  0.7932
   9.100   1.6276   0.00870   0.00504  -0.1241  0.5179  0.7933
   9.150   1.6321   0.00872   0.00506  -0.1240  0.5175  0.7935
   9.200   1.6367   0.00873   0.00509  -0.1240  0.5171  0.7936
   9.250   1.6413   0.00874   0.00511  -0.1239  0.5166  0.7938
   9.300   1.6458   0.00876   0.00513  -0.1239  0.5161  0.7939
   9.350   1.6504   0.00877   0.00515  -0.1238  0.5155  0.7941
   9.400   1.6549   0.00879   0.00518  -0.1237  0.5149  0.7943
   9.450   1.6593   0.00881   0.00520  -0.1237  0.5143  0.7944
   9.500   1.6637   0.00882   0.00522  -0.1236  0.5136  0.7946
   9.550   1.6679   0.00884   0.00525  -0.1234  0.5129  0.7947
   9.600   1.6717   0.00887   0.00527  -0.1232  0.5120  0.7949
   9.650   1.6755   0.00889   0.00530  -0.1230  0.5114  0.7951
   9.700   1.6789   0.00892   0.00533  -0.1228  0.5105  0.7952
   9.750   1.6815   0.00895   0.00537  -0.1223  0.5091  0.7954
   9.800   1.6846   0.00899   0.00540  -0.1220  0.5083  0.7956
   9.850   1.6874   0.00903   0.00544  -0.1216  0.5073  0.7958
   9.900   1.6898   0.00908   0.00549  -0.1211  0.5063  0.7959
   9.950   1.6925   0.00912   0.00553  -0.1207  0.5054  0.7961
  10.000   1.6936   0.00919   0.00559  -0.1200  0.5037  0.7963
  10.050   1.6954   0.00925   0.00565  -0.1195  0.5025  0.7965
  10.100   1.6962   0.00933   0.00573  -0.1187  0.5009  0.7967
  10.150   1.6982   0.00939   0.00579  -0.1182  0.5000  0.7969
  10.200   1.7025   0.00942   0.00583  -0.1181  0.4993  0.7970
  10.250   1.7064   0.00945   0.00587  -0.1180  0.4988  0.7972
  10.300   1.7103   0.00949   0.00591  -0.1178  0.4981  0.7973
  10.350   1.7139   0.00952   0.00596  -0.1176  0.4973  0.7975
  10.400   1.7175   0.00957   0.00600  -0.1174  0.4964  0.7976
  10.450   1.7207   0.00961   0.00607  -0.1171  0.4952  0.7978
  10.500   1.7237   0.00966   0.00612  -0.1168  0.4939  0.7979
  10.550   1.7261   0.00973   0.00619  -0.1164  0.4921  0.7981
  10.600   1.7280   0.00980   0.00626  -0.1159  0.4902  0.7982
  10.650   1.7279   0.00991   0.00636  -0.1150  0.4876  0.7984
  10.700   1.7291   0.01000   0.00645  -0.1144  0.4863  0.7986
  10.750   1.7248   0.01020   0.00663  -0.1128  0.4831  0.7988
  10.800   1.7247   0.01033   0.00676  -0.1120  0.4815  0.7989
  10.850   1.7240   0.01047   0.00689  -0.1110  0.4790  0.7991
  10.900   1.7252   0.01058   0.00700  -0.1104  0.4771  0.7992
  10.950   1.7250   0.01072   0.00713  -0.1096  0.4746  0.7994
  11.000   1.7247   0.01086   0.00727  -0.1088  0.4723  0.7995
  11.050   1.7232   0.01104   0.00745  -0.1078  0.4696  0.7996
  11.100   1.7154   0.01140   0.00778  -0.1057  0.4653  0.7998
  11.150   1.7120   0.01165   0.00802  -0.1044  0.4631  0.8000
  11.200   1.7054   0.01200   0.00836  -0.1026  0.4596  0.8005
  11.250   1.7059   0.01215   0.00852  -0.1020  0.4583  0.8010
  11.300   1.7030   0.01241   0.00878  -0.1009  0.4553  0.8016
  11.350   1.7003   0.01267   0.00904  -0.0997  0.4525  0.8022
  11.400   1.6951   0.01303   0.00939  -0.0983  0.4497  0.8029
  11.450   1.6921   0.01332   0.00969  -0.0972  0.4477  0.8035
  11.500   1.6794   0.01398   0.01034  -0.0947  0.4437  0.8044
  11.550   1.6731   0.01444   0.01079  -0.0932  0.4412  0.8050
  11.600   1.6690   0.01483   0.01119  -0.0920  0.4394  0.8056
  11.650   1.6665   0.01516   0.01152  -0.0911  0.4370  0.8062
  11.700   1.6611   0.01563   0.01199  -0.0898  0.4342  0.8067
  11.750   1.6564   0.01608   0.01245  -0.0886  0.4318  0.8073
  11.800   1.6491   0.01667   0.01304  -0.0871  0.4291  0.8079
  11.850   1.6381   0.01745   0.01381  -0.0852  0.4259  0.8085
  11.900   1.6247   0.01839   0.01475  -0.0831  0.4228  0.8091
  11.950   1.6121   0.01932   0.01568  -0.0811  0.4194  0.8097
  12.000   1.6109   0.01966   0.01602  -0.0805  0.4183  0.8101
