  
       XFOIL         Version 6.94
  
 Calculated polar for: 1080                                            
  
 1 1 Reynolds number fixed          Mach number fixed         
  
 xtrf =   1.000 (top)        1.000 (bottom)  
 Mach =   0.000     Re =     2.000 e 6     Ncrit =   9.000
  
  alpha     CL        CD       CDp       CM    Top_Xtr Bot_Xtr
 ------- -------- --------- --------- -------- ------- -------
   6.000   1.3241   0.00839   0.00447  -0.1249  0.5388  0.7792
   6.050   1.3287   0.00840   0.00448  -0.1248  0.5387  0.7792
   6.100   1.3331   0.00840   0.00449  -0.1247  0.5386  0.7792
   6.150   1.3377   0.00841   0.00450  -0.1246  0.5385  0.7793
   6.200   1.3422   0.00842   0.00451  -0.1245  0.5383  0.7793
   6.250   1.3466   0.00842   0.00452  -0.1244  0.5382  0.7794
   6.300   1.3511   0.00843   0.00453  -0.1243  0.5381  0.7794
   6.350   1.3555   0.00843   0.00454  -0.1241  0.5379  0.7795
   6.400   1.3600   0.00844   0.00455  -0.1240  0.5378  0.7795
   6.450   1.3645   0.00845   0.00456  -0.1239  0.5376  0.7795
   6.500   1.3689   0.00845   0.00457  -0.1238  0.5374  0.7796
   6.550   1.3734   0.00846   0.00458  -0.1237  0.5373  0.7796
   6.600   1.3779   0.00847   0.00459  -0.1236  0.5371  0.7797
   6.650   1.3825   0.00847   0.00460  -0.1235  0.5369  0.7797
   6.700   1.3870   0.00848   0.00461  -0.1234  0.5367  0.7798
   6.750   1.3914   0.00848   0.00462  -0.1233  0.5365  0.7798
   6.800   1.3960   0.00849   0.00463  -0.1232  0.5363  0.7798
   6.850   1.4005   0.00850   0.00464  -0.1231  0.5361  0.7799
   6.900   1.4051   0.00851   0.00465  -0.1230  0.5359  0.7799
   6.950   1.4097   0.00852   0.00466  -0.1229  0.5357  0.7800
   7.000   1.4141   0.00852   0.00467  -0.1228  0.5354  0.7801
   7.050   1.4187   0.00852   0.00468  -0.1228  0.5352  0.7803
   7.100   1.4230   0.00853   0.00468  -0.1226  0.5349  0.7806
   7.150   1.4273   0.00853   0.00469  -0.1225  0.5346  0.7808
   7.200   1.4315   0.00853   0.00470  -0.1223  0.5343  0.7811
   7.250   1.4359   0.00854   0.00470  -0.1222  0.5340  0.7813
   7.300   1.4402   0.00854   0.00472  -0.1221  0.5338  0.7815
   7.350   1.4445   0.00855   0.00472  -0.1219  0.5335  0.7818
   7.400   1.4488   0.00855   0.00473  -0.1218  0.5332  0.7820
   7.450   1.4531   0.00856   0.00474  -0.1217  0.5329  0.7822
   7.500   1.4575   0.00856   0.00476  -0.1216  0.5326  0.7825
   7.550   1.4618   0.00857   0.00477  -0.1214  0.5322  0.7827
   7.600   1.4662   0.00857   0.00478  -0.1213  0.5319  0.7829
   7.650   1.4706   0.00858   0.00479  -0.1212  0.5316  0.7831
   7.700   1.4751   0.00859   0.00480  -0.1211  0.5314  0.7833
   7.750   1.4793   0.00859   0.00481  -0.1210  0.5310  0.7835
   7.800   1.4837   0.00860   0.00482  -0.1209  0.5306  0.7837
   7.850   1.4880   0.00860   0.00483  -0.1208  0.5302  0.7839
   7.900   1.4924   0.00862   0.00484  -0.1207  0.5299  0.7841
   7.950   1.4967   0.00863   0.00486  -0.1205  0.5296  0.7843
   8.000   1.5010   0.00864   0.00487  -0.1204  0.5292  0.7844
   8.050   1.5053   0.00865   0.00489  -0.1203  0.5289  0.7846
   8.100   1.5093   0.00866   0.00490  -0.1201  0.5284  0.7848
   8.150   1.5136   0.00868   0.00492  -0.1200  0.5281  0.7850
   8.200   1.5176   0.00869   0.00493  -0.1198  0.5277  0.7852
   8.250   1.5214   0.00871   0.00495  -0.1196  0.5272  0.7854
   8.300   1.5252   0.00873   0.00497  -0.1194  0.5266  0.7856
   8.350   1.5290   0.00875   0.00499  -0.1192  0.5262  0.7858
   8.400   1.5323   0.00877   0.00501  -0.1189  0.5255  0.7860
   8.450   1.5357   0.00880   0.00504  -0.1186  0.5249  0.7862
   8.500   1.5389   0.00883   0.00507  -0.1183  0.5244  0.7864
   8.550   1.5421   0.00886   0.00511  -0.1180  0.5237  0.7866
   8.600   1.5457   0.00890   0.00514  -0.1177  0.5232  0.7867
   8.650   1.5487   0.00894   0.00519  -0.1174  0.5223  0.7869
   8.700   1.5527   0.00897   0.00523  -0.1172  0.5218  0.7871
   8.750   1.5565   0.00901   0.00526  -0.1170  0.5210  0.7873
   8.800   1.5606   0.00905   0.00530  -0.1169  0.5203  0.7875
   8.850   1.5649   0.00908   0.00533  -0.1168  0.5199  0.7876
   8.900   1.5687   0.00910   0.00536  -0.1166  0.5198  0.7878
   8.950   1.5728   0.00911   0.00539  -0.1165  0.5197  0.7880
   9.000   1.5768   0.00913   0.00541  -0.1163  0.5195  0.7881
   9.050   1.5810   0.00915   0.00544  -0.1162  0.5193  0.7883
   9.100   1.5852   0.00917   0.00547  -0.1161  0.5191  0.7885
   9.150   1.5891   0.00918   0.00549  -0.1159  0.5188  0.7886
   9.200   1.5934   0.00920   0.00552  -0.1158  0.5186  0.7888
   9.250   1.5975   0.00922   0.00555  -0.1157  0.5184  0.7890
   9.300   1.6017   0.00925   0.00558  -0.1156  0.5181  0.7891
   9.350   1.6056   0.00927   0.00561  -0.1154  0.5177  0.7893
   9.400   1.6094   0.00929   0.00565  -0.1152  0.5173  0.7895
   9.450   1.6133   0.00932   0.00568  -0.1151  0.5170  0.7897
   9.500   1.6171   0.00934   0.00571  -0.1149  0.5165  0.7898
   9.550   1.6211   0.00937   0.00575  -0.1147  0.5162  0.7900
   9.600   1.6250   0.00940   0.00578  -0.1146  0.5157  0.7902
   9.650   1.6289   0.00942   0.00582  -0.1144  0.5152  0.7903
   9.700   1.6328   0.00945   0.00585  -0.1143  0.5146  0.7905
   9.750   1.6368   0.00948   0.00588  -0.1141  0.5141  0.7906
   9.800   1.6407   0.00950   0.00592  -0.1140  0.5136  0.7908
   9.850   1.6444   0.00953   0.00595  -0.1138  0.5129  0.7910
   9.900   1.6481   0.00957   0.00599  -0.1136  0.5121  0.7912
   9.950   1.6516   0.00960   0.00603  -0.1133  0.5113  0.7913
  10.000   1.6550   0.00964   0.00607  -0.1131  0.5106  0.7915
  10.050   1.6583   0.00968   0.00611  -0.1129  0.5100  0.7917
  10.100   1.6613   0.00973   0.00616  -0.1125  0.5093  0.7919
  10.150   1.6628   0.00979   0.00623  -0.1119  0.5080  0.7921
  10.200   1.6647   0.00986   0.00629  -0.1115  0.5071  0.7923
  10.250   1.6663   0.00993   0.00636  -0.1109  0.5061  0.7925
  10.300   1.6679   0.01000   0.00643  -0.1104  0.5051  0.7927
  10.350   1.6696   0.01008   0.00651  -0.1098  0.5042  0.7929
  10.400   1.6699   0.01019   0.00661  -0.1091  0.5028  0.7931
  10.450   1.6701   0.01029   0.00672  -0.1083  0.5017  0.7933
  10.500   1.6700   0.01042   0.00684  -0.1075  0.5004  0.7936
  10.550   1.6726   0.01048   0.00692  -0.1071  0.4997  0.7938
  10.600   1.6765   0.01053   0.00697  -0.1070  0.4992  0.7940
  10.650   1.6804   0.01057   0.00702  -0.1069  0.4987  0.7941
  10.700   1.6840   0.01062   0.00708  -0.1067  0.4978  0.7943
  10.750   1.6875   0.01067   0.00715  -0.1065  0.4971  0.7945
  10.800   1.6909   0.01073   0.00721  -0.1063  0.4963  0.7947
  10.850   1.6937   0.01079   0.00728  -0.1060  0.4951  0.7948
  10.900   1.6956   0.01088   0.00738  -0.1056  0.4937  0.7950
  10.950   1.6961   0.01100   0.00750  -0.1049  0.4917  0.7953
  11.000   1.6975   0.01111   0.00760  -0.1044  0.4904  0.7955
  11.050   1.6966   0.01128   0.00776  -0.1035  0.4881  0.7957
  11.100   1.6957   0.01145   0.00793  -0.1026  0.4862  0.7959
  11.150   1.6929   0.01167   0.00815  -0.1014  0.4844  0.7962
  11.200   1.6878   0.01198   0.00844  -0.0999  0.4818  0.7965
  11.250   1.6849   0.01223   0.00869  -0.0987  0.4796  0.7967
  11.300   1.6866   0.01235   0.00882  -0.0983  0.4787  0.7969
  11.350   1.6873   0.01250   0.00898  -0.0977  0.4773  0.7971
  11.400   1.6869   0.01270   0.00917  -0.0970  0.4752  0.7973
  11.450   1.6862   0.01290   0.00937  -0.0962  0.4731  0.7975
  11.500   1.6838   0.01316   0.00963  -0.0952  0.4708  0.7977
  11.550   1.6791   0.01352   0.00998  -0.0938  0.4683  0.7979
  11.600   1.6720   0.01398   0.01043  -0.0922  0.4654  0.7982
  11.650   1.6599   0.01465   0.01109  -0.0899  0.4619  0.7985
  11.700   1.6535   0.01514   0.01157  -0.0884  0.4594  0.7987
  11.750   1.6516   0.01544   0.01188  -0.0876  0.4576  0.7988
  11.800   1.6496   0.01576   0.01220  -0.0867  0.4556  0.7990
  11.850   1.6452   0.01619   0.01263  -0.0856  0.4532  0.7992
  11.900   1.6361   0.01683   0.01327  -0.0838  0.4499  0.7994
  11.950   1.6237   0.01766   0.01408  -0.0817  0.4467  0.7996
  12.000   1.6046   0.01883   0.01524  -0.0789  0.4426  0.7998
