  
       XFOIL         Version 6.94
  
 Calculated polar for: 1080                                            
  
 1 1 Reynolds number fixed          Mach number fixed         
  
 xtrf =   1.000 (top)        1.000 (bottom)  
 Mach =   0.000     Re =     2.000 e 6     Ncrit =   9.000
  
  alpha     CL        CD       CDp       CM    Top_Xtr Bot_Xtr
 ------- -------- --------- --------- -------- ------- -------
   6.000   1.3342   0.00832   0.00440  -0.1271  0.5389  0.7797
   6.050   1.3388   0.00833   0.00440  -0.1270  0.5387  0.7797
   6.100   1.3434   0.00833   0.00441  -0.1269  0.5386  0.7798
   6.150   1.3481   0.00834   0.00442  -0.1268  0.5385  0.7798
   6.200   1.3527   0.00834   0.00443  -0.1267  0.5384  0.7798
   6.250   1.3574   0.00835   0.00444  -0.1267  0.5383  0.7799
   6.300   1.3618   0.00835   0.00444  -0.1265  0.5381  0.7799
   6.350   1.3663   0.00836   0.00445  -0.1264  0.5380  0.7799
   6.400   1.3708   0.00836   0.00446  -0.1263  0.5378  0.7800
   6.450   1.3751   0.00836   0.00447  -0.1262  0.5377  0.7801
   6.500   1.3797   0.00837   0.00448  -0.1261  0.5375  0.7804
   6.550   1.3841   0.00837   0.00448  -0.1259  0.5373  0.7806
   6.600   1.3885   0.00837   0.00449  -0.1258  0.5371  0.7808
   6.650   1.3929   0.00837   0.00449  -0.1257  0.5369  0.7811
   6.700   1.3973   0.00837   0.00450  -0.1256  0.5367  0.7813
   6.750   1.4018   0.00837   0.00451  -0.1255  0.5365  0.7815
   6.800   1.4063   0.00838   0.00451  -0.1254  0.5363  0.7817
   6.850   1.4108   0.00838   0.00452  -0.1252  0.5361  0.7820
   6.900   1.4153   0.00838   0.00453  -0.1251  0.5358  0.7822
   6.950   1.4198   0.00839   0.00453  -0.1250  0.5356  0.7824
   7.000   1.4244   0.00839   0.00454  -0.1249  0.5353  0.7826
   7.050   1.4288   0.00839   0.00455  -0.1248  0.5350  0.7828
   7.100   1.4334   0.00840   0.00456  -0.1247  0.5348  0.7830
   7.150   1.4380   0.00840   0.00457  -0.1247  0.5345  0.7832
   7.200   1.4424   0.00840   0.00457  -0.1246  0.5342  0.7834
   7.250   1.4469   0.00840   0.00458  -0.1245  0.5339  0.7836
   7.300   1.4515   0.00841   0.00459  -0.1244  0.5336  0.7838
   7.350   1.4560   0.00842   0.00460  -0.1243  0.5333  0.7839
   7.400   1.4603   0.00842   0.00460  -0.1241  0.5330  0.7841
   7.450   1.4646   0.00843   0.00463  -0.1240  0.5327  0.7843
   7.500   1.4689   0.00844   0.00464  -0.1239  0.5324  0.7845
   7.550   1.4732   0.00844   0.00465  -0.1237  0.5321  0.7847
   7.600   1.4775   0.00845   0.00466  -0.1236  0.5318  0.7848
   7.650   1.4818   0.00846   0.00468  -0.1235  0.5315  0.7850
   7.700   1.4860   0.00847   0.00469  -0.1233  0.5311  0.7852
   7.750   1.4903   0.00848   0.00470  -0.1232  0.5308  0.7854
   7.800   1.4946   0.00848   0.00471  -0.1230  0.5305  0.7855
   7.850   1.4988   0.00849   0.00472  -0.1229  0.5301  0.7857
   7.900   1.5031   0.00850   0.00474  -0.1228  0.5297  0.7859
   7.950   1.5073   0.00851   0.00475  -0.1226  0.5294  0.7860
   8.000   1.5115   0.00852   0.00476  -0.1225  0.5290  0.7862
   8.050   1.5155   0.00853   0.00477  -0.1223  0.5285  0.7864
   8.100   1.5196   0.00855   0.00479  -0.1221  0.5280  0.7866
   8.150   1.5235   0.00856   0.00480  -0.1219  0.5275  0.7867
   8.200   1.5275   0.00858   0.00482  -0.1218  0.5271  0.7869
   8.250   1.5315   0.00860   0.00484  -0.1216  0.5267  0.7871
   8.300   1.5350   0.00862   0.00486  -0.1213  0.5260  0.7873
   8.350   1.5388   0.00864   0.00489  -0.1211  0.5255  0.7874
   8.400   1.5427   0.00866   0.00491  -0.1209  0.5251  0.7876
   8.450   1.5464   0.00869   0.00494  -0.1207  0.5245  0.7878
   8.500   1.5500   0.00872   0.00497  -0.1204  0.5238  0.7879
   8.550   1.5537   0.00875   0.00500  -0.1202  0.5232  0.7881
   8.600   1.5576   0.00878   0.00504  -0.1200  0.5225  0.7883
   8.650   1.5614   0.00882   0.00507  -0.1198  0.5217  0.7884
   8.700   1.5655   0.00885   0.00511  -0.1197  0.5210  0.7886
   8.750   1.5696   0.00889   0.00514  -0.1195  0.5203  0.7887
   8.800   1.5738   0.00892   0.00518  -0.1194  0.5199  0.7889
   8.850   1.5777   0.00894   0.00520  -0.1192  0.5198  0.7891
   8.900   1.5816   0.00895   0.00523  -0.1190  0.5196  0.7892
   8.950   1.5855   0.00897   0.00525  -0.1189  0.5194  0.7894
   9.000   1.5895   0.00899   0.00528  -0.1187  0.5192  0.7896
   9.050   1.5937   0.00901   0.00531  -0.1186  0.5191  0.7897
   9.100   1.5977   0.00902   0.00534  -0.1184  0.5188  0.7899
   9.150   1.6018   0.00904   0.00536  -0.1183  0.5185  0.7901
   9.200   1.6060   0.00906   0.00539  -0.1182  0.5183  0.7902
   9.250   1.6102   0.00908   0.00542  -0.1180  0.5179  0.7904
   9.300   1.6143   0.00910   0.00544  -0.1179  0.5176  0.7905
   9.350   1.6186   0.00912   0.00547  -0.1178  0.5173  0.7907
   9.400   1.6228   0.00914   0.00550  -0.1177  0.5169  0.7908
   9.450   1.6271   0.00916   0.00553  -0.1176  0.5165  0.7910
   9.500   1.6313   0.00918   0.00556  -0.1175  0.5160  0.7912
   9.550   1.6356   0.00920   0.00559  -0.1174  0.5156  0.7913
   9.600   1.6398   0.00922   0.00562  -0.1173  0.5151  0.7915
   9.650   1.6440   0.00924   0.00565  -0.1172  0.5146  0.7916
   9.700   1.6480   0.00927   0.00568  -0.1170  0.5140  0.7918
   9.750   1.6517   0.00930   0.00571  -0.1168  0.5133  0.7920
   9.800   1.6553   0.00933   0.00575  -0.1166  0.5126  0.7922
   9.850   1.6585   0.00936   0.00578  -0.1163  0.5117  0.7923
   9.900   1.6621   0.00939   0.00582  -0.1161  0.5113  0.7925
   9.950   1.6650   0.00943   0.00586  -0.1158  0.5103  0.7927
  10.000   1.6678   0.00948   0.00591  -0.1154  0.5092  0.7929
  10.050   1.6707   0.00952   0.00595  -0.1150  0.5084  0.7931
  10.100   1.6733   0.00957   0.00600  -0.1147  0.5075  0.7933
  10.150   1.6754   0.00963   0.00606  -0.1142  0.5064  0.7935
  10.200   1.6774   0.00969   0.00612  -0.1137  0.5053  0.7937
  10.250   1.6785   0.00977   0.00620  -0.1130  0.5043  0.7939
  10.300   1.6787   0.00987   0.00629  -0.1122  0.5030  0.7941
  10.350   1.6789   0.00997   0.00639  -0.1114  0.5017  0.7943
  10.400   1.6795   0.01007   0.00649  -0.1107  0.5004  0.7946
  10.450   1.6826   0.01013   0.00655  -0.1104  0.4998  0.7947
  10.500   1.6868   0.01016   0.00660  -0.1103  0.4993  0.7949
  10.550   1.6908   0.01020   0.00664  -0.1102  0.4985  0.7951
  10.600   1.6945   0.01024   0.00669  -0.1101  0.4976  0.7952
  10.650   1.6978   0.01029   0.00676  -0.1098  0.4967  0.7954
  10.700   1.7006   0.01036   0.00683  -0.1095  0.4955  0.7956
  10.750   1.7033   0.01042   0.00690  -0.1092  0.4946  0.7958
  10.800   1.7053   0.01050   0.00699  -0.1087  0.4932  0.7960
  10.850   1.7070   0.01059   0.00708  -0.1082  0.4916  0.7962
  10.900   1.7078   0.01070   0.00718  -0.1076  0.4897  0.7964
  10.950   1.7085   0.01082   0.00730  -0.1069  0.4880  0.7966
  11.000   1.7069   0.01099   0.00747  -0.1059  0.4859  0.7968
  11.050   1.7036   0.01122   0.00768  -0.1046  0.4837  0.7970
  11.100   1.7006   0.01144   0.00790  -0.1033  0.4816  0.7973
  11.150   1.6989   0.01165   0.00810  -0.1023  0.4796  0.7975
  11.200   1.6999   0.01178   0.00823  -0.1018  0.4782  0.7977
  11.250   1.7009   0.01191   0.00837  -0.1012  0.4767  0.7979
  11.300   1.7007   0.01208   0.00854  -0.1005  0.4746  0.7980
  11.350   1.7004   0.01227   0.00872  -0.0997  0.4725  0.7982
  11.400   1.6964   0.01256   0.00902  -0.0984  0.4697  0.7984
  11.450   1.6909   0.01292   0.00936  -0.0969  0.4668  0.7987
  11.500   1.6808   0.01346   0.00989  -0.0948  0.4633  0.7989
  11.550   1.6729   0.01395   0.01037  -0.0930  0.4604  0.7991
  11.600   1.6716   0.01421   0.01063  -0.0922  0.4588  0.7993
  11.650   1.6702   0.01448   0.01090  -0.0914  0.4571  0.7994
  11.700   1.6657   0.01488   0.01130  -0.0901  0.4540  0.7996
  11.750   1.6579   0.01543   0.01184  -0.0885  0.4508  0.7998
  11.800   1.6545   0.01581   0.01222  -0.0875  0.4490  0.7999
  11.850   1.6389   0.01675   0.01315  -0.0849  0.4450  0.8003
  11.900   1.6221   0.01778   0.01418  -0.0823  0.4411  0.8012
  11.950   1.6178   0.01825   0.01464  -0.0812  0.4391  0.8018
  12.000   1.6143   0.01868   0.01508  -0.0803  0.4372  0.8024
