  
       XFOIL         Version 6.94
  
 Calculated polar for: 1080                                            
  
 1 1 Reynolds number fixed          Mach number fixed         
  
 xtrf =   1.000 (top)        1.000 (bottom)  
 Mach =   0.000     Re =     2.000 e 6     Ncrit =   9.000
  
  alpha     CL        CD       CDp       CM    Top_Xtr Bot_Xtr
 ------- -------- --------- --------- -------- ------- -------
   6.000   1.0766   0.00771   0.00318  -0.0619  0.4459  0.7292
   6.010   1.0776   0.00771   0.00318  -0.0618  0.4456  0.7292
   6.020   1.0786   0.00772   0.00319  -0.0618  0.4457  0.7293
   6.030   1.0796   0.00772   0.00319  -0.0618  0.4454  0.7293
   6.040   1.0806   0.00772   0.00319  -0.0618  0.4455  0.7294
   6.050   1.0816   0.00773   0.00320  -0.0618  0.4452  0.7294
   6.060   1.0825   0.00773   0.00320  -0.0618  0.4449  0.7295
   6.070   1.0835   0.00773   0.00320  -0.0618  0.4450  0.7296
   6.080   1.0845   0.00774   0.00321  -0.0618  0.4448  0.7296
   6.090   1.0855   0.00774   0.00321  -0.0618  0.4448  0.7297
   6.100   1.0864   0.00774   0.00322  -0.0618  0.4445  0.7297
   6.110   1.0874   0.00775   0.00322  -0.0617  0.4444  0.7298
   6.120   1.0884   0.00775   0.00323  -0.0617  0.4443  0.7298
   6.130   1.0893   0.00775   0.00323  -0.0617  0.4441  0.7299
   6.140   1.0902   0.00776   0.00323  -0.0617  0.4437  0.7300
   6.150   1.0912   0.00776   0.00324  -0.0617  0.4437  0.7300
   6.160   1.0922   0.00777   0.00324  -0.0617  0.4435  0.7301
   6.170   1.0931   0.00777   0.00324  -0.0616  0.4433  0.7301
   6.180   1.0941   0.00777   0.00325  -0.0617  0.4434  0.7302
   6.190   1.0950   0.00778   0.00325  -0.0616  0.4431  0.7302
   6.200   1.0960   0.00778   0.00326  -0.0616  0.4430  0.7303
   6.210   1.0969   0.00779   0.00326  -0.0616  0.4428  0.7303
   6.220   1.0978   0.00779   0.00327  -0.0616  0.4427  0.7304
   6.230   1.0988   0.00780   0.00327  -0.0616  0.4427  0.7304
   6.240   1.0998   0.00780   0.00327  -0.0615  0.4425  0.7305
   6.250   1.1007   0.00781   0.00328  -0.0615  0.4423  0.7305
   6.260   1.1015   0.00781   0.00328  -0.0615  0.4420  0.7306
   6.270   1.1025   0.00781   0.00329  -0.0615  0.4420  0.7306
   6.280   1.1033   0.00782   0.00329  -0.0614  0.4417  0.7307
   6.290   1.1043   0.00782   0.00330  -0.0614  0.4417  0.7307
   6.300   1.1051   0.00783   0.00330  -0.0614  0.4413  0.7308
   6.310   1.1061   0.00784   0.00331  -0.0614  0.4413  0.7309
   6.320   1.1069   0.00784   0.00331  -0.0613  0.4410  0.7309
   6.330   1.1078   0.00785   0.00332  -0.0613  0.4408  0.7310
   6.340   1.1087   0.00785   0.00332  -0.0613  0.4407  0.7310
   6.350   1.1096   0.00786   0.00332  -0.0613  0.4406  0.7310
   6.360   1.1106   0.00786   0.00333  -0.0612  0.4405  0.7311
   6.370   1.1114   0.00787   0.00334  -0.0612  0.4402  0.7312
   6.380   1.1123   0.00787   0.00334  -0.0612  0.4402  0.7312
   6.390   1.1131   0.00788   0.00334  -0.0611  0.4400  0.7312
   6.400   1.1140   0.00789   0.00335  -0.0611  0.4398  0.7313
   6.410   1.1148   0.00789   0.00336  -0.0611  0.4396  0.7313
   6.420   1.1158   0.00790   0.00336  -0.0611  0.4396  0.7314
   6.430   1.1166   0.00791   0.00337  -0.0610  0.4393  0.7314
   6.440   1.1174   0.00791   0.00337  -0.0610  0.4391  0.7315
   6.450   1.1182   0.00792   0.00338  -0.0609  0.4390  0.7315
   6.460   1.1191   0.00793   0.00338  -0.0609  0.4388  0.7316
   6.470   1.1200   0.00793   0.00339  -0.0609  0.4387  0.7316
   6.480   1.1208   0.00794   0.00339  -0.0608  0.4385  0.7317
   6.520   1.1239   0.00796   0.00342  -0.0606  0.4378  0.7320
   6.530   1.1248   0.00797   0.00342  -0.0606  0.4377  0.7320
   6.540   1.1255   0.00798   0.00343  -0.0606  0.4375  0.7321
   6.550   1.1262   0.00798   0.00344  -0.0605  0.4373  0.7322
   6.560   1.1272   0.00799   0.00344  -0.0605  0.4371  0.7323
   6.570   1.1282   0.00799   0.00345  -0.0605  0.4370  0.7323
   6.580   1.1291   0.00799   0.00345  -0.0605  0.4370  0.7324
   6.590   1.1302   0.00799   0.00345  -0.0605  0.4368  0.7325
   6.600   1.1312   0.00800   0.00346  -0.0605  0.4366  0.7325
   6.610   1.1321   0.00800   0.00346  -0.0604  0.4367  0.7326
   6.620   1.1331   0.00800   0.00346  -0.0604  0.4363  0.7327
   6.630   1.1341   0.00800   0.00347  -0.0604  0.4363  0.7327
   6.640   1.1350   0.00801   0.00347  -0.0604  0.4361  0.7328
   6.650   1.1360   0.00801   0.00348  -0.0604  0.4359  0.7329
   6.660   1.1370   0.00801   0.00348  -0.0604  0.4358  0.7329
   6.670   1.1380   0.00802   0.00349  -0.0604  0.4357  0.7330
   6.680   1.1389   0.00802   0.00349  -0.0604  0.4356  0.7331
   6.690   1.1398   0.00802   0.00349  -0.0604  0.4355  0.7331
   6.700   1.1408   0.00803   0.00350  -0.0603  0.4352  0.7332
   6.710   1.1418   0.00803   0.00350  -0.0603  0.4351  0.7333
   6.720   1.1427   0.00803   0.00351  -0.0603  0.4350  0.7333
   6.730   1.1437   0.00804   0.00351  -0.0603  0.4350  0.7334
   6.740   1.1446   0.00804   0.00352  -0.0603  0.4346  0.7335
   6.750   1.1455   0.00804   0.00352  -0.0603  0.4344  0.7335
   6.760   1.1464   0.00805   0.00353  -0.0602  0.4342  0.7336
   6.770   1.1473   0.00805   0.00353  -0.0602  0.4341  0.7337
   6.780   1.1483   0.00805   0.00354  -0.0602  0.4340  0.7337
   6.790   1.1491   0.00806   0.00354  -0.0602  0.4335  0.7338
   6.800   1.1501   0.00806   0.00355  -0.0602  0.4334  0.7339
   6.810   1.1510   0.00807   0.00355  -0.0601  0.4334  0.7340
   6.820   1.1519   0.00807   0.00356  -0.0601  0.4333  0.7340
   6.830   1.1527   0.00808   0.00356  -0.0601  0.4329  0.7341
   6.840   1.1537   0.00808   0.00357  -0.0601  0.4329  0.7341
   6.850   1.1546   0.00809   0.00357  -0.0600  0.4326  0.7342
   6.860   1.1555   0.00809   0.00358  -0.0600  0.4326  0.7343
   6.870   1.1563   0.00810   0.00358  -0.0600  0.4323  0.7343
   6.880   1.1572   0.00810   0.00359  -0.0600  0.4321  0.7344
   6.890   1.1582   0.00810   0.00359  -0.0600  0.4322  0.7345
   6.900   1.1588   0.00812   0.00360  -0.0599  0.4314  0.7345
   6.910   1.1597   0.00812   0.00360  -0.0599  0.4314  0.7346
   6.920   1.1606   0.00812   0.00361  -0.0598  0.4313  0.7347
   6.930   1.1615   0.00813   0.00362  -0.0598  0.4312  0.7347
   6.940   1.1624   0.00814   0.00362  -0.0598  0.4309  0.7348
   6.950   1.1631   0.00814   0.00363  -0.0597  0.4306  0.7348
   6.960   1.1641   0.00815   0.00363  -0.0597  0.4307  0.7349
   6.970   1.1649   0.00815   0.00364  -0.0597  0.4304  0.7350
   6.980   1.1657   0.00816   0.00365  -0.0596  0.4301  0.7350
   6.990   1.1665   0.00817   0.00365  -0.0596  0.4300  0.7351
   7.000   1.1673   0.00817   0.00366  -0.0595  0.4298  0.7352
   7.010   1.1681   0.00818   0.00367  -0.0595  0.4296  0.7352
   7.020   1.1689   0.00819   0.00367  -0.0595  0.4295  0.7353
   7.030   1.1698   0.00819   0.00368  -0.0594  0.4293  0.7354
   7.040   1.1704   0.00820   0.00369  -0.0594  0.4290  0.7354
   7.050   1.1714   0.00820   0.00369  -0.0594  0.4290  0.7355
   7.060   1.1721   0.00821   0.00370  -0.0593  0.4288  0.7356
   7.070   1.1728   0.00822   0.00371  -0.0592  0.4284  0.7356
   7.080   1.1735   0.00823   0.00371  -0.0592  0.4283  0.7357
   7.090   1.1744   0.00824   0.00372  -0.0592  0.4282  0.7358
   7.100   1.1752   0.00824   0.00373  -0.0591  0.4280  0.7358
   7.110   1.1759   0.00825   0.00373  -0.0590  0.4278  0.7359
   7.120   1.1766   0.00826   0.00374  -0.0590  0.4275  0.7359
   7.130   1.1773   0.00827   0.00375  -0.0589  0.4273  0.7360
   7.140   1.1784   0.00827   0.00375  -0.0589  0.4274  0.7361
   7.150   1.1789   0.00829   0.00376  -0.0588  0.4270  0.7361
   7.160   1.1797   0.00829   0.00377  -0.0588  0.4267  0.7362
   7.170   1.1806   0.00830   0.00377  -0.0588  0.4267  0.7363
   7.180   1.1816   0.00830   0.00378  -0.0588  0.4265  0.7364
   7.190   1.1826   0.00830   0.00378  -0.0588  0.4262  0.7364
   7.200   1.1835   0.00831   0.00379  -0.0588  0.4262  0.7365
   7.210   1.1845   0.00831   0.00379  -0.0588  0.4260  0.7365
   7.220   1.1855   0.00832   0.00380  -0.0587  0.4259  0.7366
   7.230   1.1864   0.00832   0.00380  -0.0587  0.4256  0.7367
   7.240   1.1874   0.00832   0.00381  -0.0587  0.4255  0.7367
   7.250   1.1883   0.00833   0.00381  -0.0587  0.4253  0.7368
   7.260   1.1893   0.00833   0.00382  -0.0587  0.4253  0.7369
   7.270   1.1902   0.00834   0.00382  -0.0587  0.4250  0.7369
   7.280   1.1911   0.00834   0.00383  -0.0586  0.4247  0.7370
   7.290   1.1919   0.00835   0.00383  -0.0586  0.4243  0.7371
   7.300   1.1929   0.00835   0.00384  -0.0586  0.4244  0.7371
   7.310   1.1939   0.00836   0.00384  -0.0586  0.4243  0.7372
   7.320   1.1948   0.00836   0.00385  -0.0586  0.4241  0.7372
   7.330   1.1956   0.00837   0.00386  -0.0585  0.4237  0.7373
   7.340   1.1965   0.00837   0.00386  -0.0585  0.4236  0.7374
   7.350   1.1975   0.00838   0.00387  -0.0585  0.4236  0.7374
   7.360   1.1982   0.00838   0.00387  -0.0585  0.4230  0.7375
   7.370   1.1992   0.00839   0.00388  -0.0584  0.4229  0.7376
   7.380   1.2001   0.00839   0.00388  -0.0584  0.4228  0.7376
   7.390   1.2010   0.00840   0.00389  -0.0584  0.4227  0.7377
   7.400   1.2018   0.00840   0.00390  -0.0584  0.4226  0.7378
   7.410   1.2026   0.00841   0.00390  -0.0583  0.4223  0.7378
   7.420   1.2034   0.00842   0.00391  -0.0583  0.4219  0.7379
   7.430   1.2043   0.00842   0.00391  -0.0583  0.4218  0.7380
   7.440   1.2051   0.00843   0.00392  -0.0582  0.4215  0.7380
   7.450   1.2059   0.00844   0.00393  -0.0582  0.4212  0.7381
   7.460   1.2067   0.00844   0.00394  -0.0581  0.4210  0.7382
   7.470   1.2073   0.00846   0.00394  -0.0581  0.4206  0.7383
   7.480   1.2083   0.00846   0.00395  -0.0581  0.4206  0.7383
   7.490   1.2091   0.00847   0.00396  -0.0580  0.4204  0.7384
   7.500   1.2099   0.00847   0.00396  -0.0580  0.4203  0.7384
   7.510   1.2107   0.00848   0.00397  -0.0579  0.4200  0.7385
   7.520   1.2113   0.00849   0.00398  -0.0579  0.4196  0.7386
   7.530   1.2121   0.00850   0.00398  -0.0578  0.4195  0.7386
   7.540   1.2130   0.00850   0.00399  -0.0578  0.4195  0.7387
   7.550   1.2134   0.00852   0.00400  -0.0577  0.4188  0.7388
   7.560   1.2145   0.00852   0.00401  -0.0577  0.4190  0.7388
   7.570   1.2150   0.00853   0.00402  -0.0576  0.4185  0.7389
   7.580   1.2159   0.00854   0.00402  -0.0576  0.4185  0.7390
   7.590   1.2163   0.00855   0.00403  -0.0575  0.4180  0.7391
   7.600   1.2172   0.00856   0.00404  -0.0574  0.4180  0.7391
   7.610   1.2178   0.00857   0.00405  -0.0574  0.4177  0.7392
   7.620   1.2186   0.00858   0.00406  -0.0573  0.4176  0.7392
   7.630   1.2192   0.00859   0.00407  -0.0573  0.4173  0.7394
   7.640   1.2198   0.00860   0.00408  -0.0572  0.4170  0.7394
   7.650   1.2206   0.00861   0.00408  -0.0571  0.4169  0.7395
   7.660   1.2211   0.00862   0.00409  -0.0571  0.4163  0.7395
   7.670   1.2220   0.00863   0.00410  -0.0570  0.4163  0.7396
   7.680   1.2229   0.00863   0.00410  -0.0570  0.4160  0.7397
   7.690   1.2238   0.00864   0.00411  -0.0570  0.4157  0.7397
   7.700   1.2248   0.00864   0.00412  -0.0570  0.4159  0.7398
   7.710   1.2257   0.00865   0.00412  -0.0570  0.4156  0.7398
   7.720   1.2266   0.00865   0.00413  -0.0569  0.4154  0.7399
   7.730   1.2274   0.00866   0.00413  -0.0569  0.4152  0.7400
   7.740   1.2284   0.00866   0.00414  -0.0569  0.4150  0.7400
   7.750   1.2292   0.00867   0.00415  -0.0569  0.4147  0.7401
   7.760   1.2302   0.00867   0.00415  -0.0569  0.4147  0.7402
   7.770   1.2310   0.00868   0.00416  -0.0568  0.4142  0.7402
   7.780   1.2319   0.00868   0.00416  -0.0568  0.4141  0.7403
   7.790   1.2328   0.00869   0.00417  -0.0568  0.4140  0.7404
   7.800   1.2335   0.00870   0.00418  -0.0567  0.4135  0.7404
   7.810   1.2345   0.00870   0.00418  -0.0567  0.4134  0.7405
   7.820   1.2353   0.00871   0.00419  -0.0567  0.4133  0.7405
   7.830   1.2361   0.00872   0.00420  -0.0567  0.4130  0.7406
   7.840   1.2369   0.00872   0.00420  -0.0566  0.4126  0.7407
   7.850   1.2379   0.00873   0.00421  -0.0566  0.4126  0.7407
   7.860   1.2386   0.00874   0.00422  -0.0566  0.4122  0.7408
   7.870   1.2395   0.00874   0.00422  -0.0565  0.4121  0.7408
   7.880   1.2402   0.00875   0.00423  -0.0565  0.4117  0.7409
   7.890   1.2410   0.00876   0.00424  -0.0564  0.4114  0.7410
   7.900   1.2417   0.00877   0.00425  -0.0564  0.4111  0.7410
   7.910   1.2425   0.00878   0.00425  -0.0564  0.4109  0.7411
   7.920   1.2432   0.00879   0.00426  -0.0563  0.4105  0.7412
   7.930   1.2442   0.00879   0.00427  -0.0563  0.4106  0.7412
   7.940   1.2448   0.00880   0.00428  -0.0562  0.4102  0.7413
   7.950   1.2456   0.00881   0.00428  -0.0562  0.4101  0.7413
   7.960   1.2463   0.00882   0.00429  -0.0561  0.4099  0.7414
   7.970   1.2470   0.00883   0.00430  -0.0561  0.4096  0.7414
   7.980   1.2476   0.00884   0.00431  -0.0560  0.4091  0.7415
   7.990   1.2480   0.00886   0.00432  -0.0559  0.4086  0.7415
   8.000   1.2489   0.00886   0.00433  -0.0559  0.4087  0.7416
   8.010   1.2496   0.00887   0.00434  -0.0558  0.4084  0.7417
   8.020   1.2499   0.00889   0.00435  -0.0557  0.4078  0.7417
   8.030   1.2505   0.00890   0.00436  -0.0556  0.4075  0.7418
   8.040   1.2514   0.00891   0.00437  -0.0556  0.4075  0.7418
   8.050   1.2522   0.00891   0.00438  -0.0555  0.4075  0.7419
   8.060   1.2529   0.00893   0.00439  -0.0555  0.4073  0.7419
   8.070   1.2533   0.00894   0.00440  -0.0554  0.4068  0.7420
   8.080   1.2538   0.00896   0.00441  -0.0553  0.4065  0.7420
   8.090   1.2542   0.00897   0.00442  -0.0552  0.4061  0.7421
   8.100   1.2551   0.00898   0.00443  -0.0552  0.4060  0.7422
   8.110   1.2559   0.00899   0.00444  -0.0551  0.4057  0.7422
