  
       XFOIL         Version 6.94
  
 Calculated polar for: 1080                                            
  
 1 1 Reynolds number fixed          Mach number fixed         
  
 xtrf =   1.000 (top)        1.000 (bottom)  
 Mach =   0.000     Re =     2.000 e 6     Ncrit =   9.000
  
  alpha     CL        CD       CDp       CM    Top_Xtr Bot_Xtr
 ------- -------- --------- --------- -------- ------- -------
   6.000   0.8036   0.01011   0.00571  -0.0149  0.4765  0.7550
   6.010   0.8043   0.01012   0.00572  -0.0149  0.4764  0.7551
   6.020   0.8051   0.01013   0.00573  -0.0148  0.4763  0.7551
   6.030   0.8056   0.01015   0.00574  -0.0147  0.4760  0.7552
   6.040   0.8062   0.01017   0.00575  -0.0147  0.4757  0.7552
   6.050   0.8063   0.01019   0.00578  -0.0145  0.4752  0.7553
   6.060   0.8074   0.01019   0.00578  -0.0146  0.4754  0.7553
   6.070   0.8081   0.01021   0.00579  -0.0145  0.4753  0.7554
   6.080   0.8084   0.01023   0.00581  -0.0144  0.4748  0.7554
   6.090   0.8091   0.01024   0.00582  -0.0143  0.4747  0.7555
   6.100   0.8100   0.01025   0.00583  -0.0143  0.4747  0.7555
   6.110   0.8109   0.01026   0.00584  -0.0143  0.4747  0.7555
   6.120   0.8111   0.01028   0.00586  -0.0142  0.4743  0.7556
   6.130   0.8123   0.01028   0.00586  -0.0142  0.4745  0.7556
   6.140   0.8128   0.01030   0.00587  -0.0141  0.4742  0.7557
   6.150   0.8137   0.01030   0.00588  -0.0141  0.4740  0.7557
   6.160   0.8146   0.01031   0.00589  -0.0141  0.4737  0.7558
