  
       XFOIL         Version 6.94
  
 Calculated polar for: 1080                                            
  
 1 1 Reynolds number fixed          Mach number fixed         
  
 xtrf =   1.000 (top)        1.000 (bottom)  
 Mach =   0.000     Re =     2.000 e 6     Ncrit =   9.000
  
  alpha     CL        CD       CDp       CM    Top_Xtr Bot_Xtr
 ------- -------- --------- --------- -------- ------- -------
   6.000   1.3257   0.00803   0.00393  -0.1245  0.5346  0.7819
   6.010   1.3266   0.00803   0.00393  -0.1245  0.5345  0.7819
   6.020   1.3275   0.00803   0.00393  -0.1245  0.5345  0.7819
   6.030   1.3284   0.00803   0.00394  -0.1244  0.5345  0.7819
   6.040   1.3293   0.00803   0.00394  -0.1244  0.5344  0.7819
   6.050   1.3302   0.00803   0.00394  -0.1244  0.5344  0.7820
   6.060   1.3311   0.00803   0.00394  -0.1244  0.5343  0.7820
   6.070   1.3320   0.00803   0.00395  -0.1243  0.5343  0.7820
   6.080   1.3329   0.00803   0.00395  -0.1243  0.5342  0.7820
   6.090   1.3337   0.00803   0.00395  -0.1243  0.5342  0.7820
   6.100   1.3347   0.00803   0.00395  -0.1243  0.5342  0.7821
   6.110   1.3356   0.00803   0.00395  -0.1242  0.5341  0.7821
   6.120   1.3366   0.00803   0.00396  -0.1242  0.5341  0.7821
   6.130   1.3374   0.00803   0.00396  -0.1242  0.5340  0.7821
   6.140   1.3383   0.00803   0.00396  -0.1242  0.5340  0.7821
   6.150   1.3392   0.00804   0.00396  -0.1242  0.5339  0.7822
   6.160   1.3401   0.00804   0.00396  -0.1241  0.5339  0.7822
   6.170   1.3409   0.00804   0.00397  -0.1241  0.5338  0.7822
   6.180   1.3420   0.00804   0.00397  -0.1241  0.5338  0.7822
   6.190   1.3429   0.00804   0.00397  -0.1241  0.5337  0.7822
   6.200   1.3438   0.00804   0.00397  -0.1240  0.5337  0.7823
   6.210   1.3447   0.00804   0.00398  -0.1240  0.5337  0.7823
   6.220   1.3458   0.00805   0.00398  -0.1240  0.5336  0.7823
   6.230   1.3467   0.00805   0.00398  -0.1240  0.5336  0.7823
   6.240   1.3476   0.00805   0.00399  -0.1240  0.5335  0.7824
   6.250   1.3485   0.00805   0.00399  -0.1240  0.5335  0.7824
   6.260   1.3495   0.00805   0.00399  -0.1240  0.5335  0.7824
   6.270   1.3504   0.00805   0.00399  -0.1239  0.5334  0.7824
   6.280   1.3512   0.00805   0.00399  -0.1239  0.5333  0.7824
   6.290   1.3523   0.00806   0.00400  -0.1239  0.5333  0.7825
   6.300   1.3532   0.00806   0.00400  -0.1239  0.5332  0.7825
   6.310   1.3540   0.00805   0.00400  -0.1238  0.5331  0.7825
   6.320   1.3551   0.00806   0.00400  -0.1238  0.5331  0.7825
   6.330   1.3560   0.00806   0.00401  -0.1238  0.5331  0.7825
   6.340   1.3568   0.00806   0.00401  -0.1238  0.5330  0.7826
   6.350   1.3577   0.00806   0.00401  -0.1238  0.5329  0.7826
   6.360   1.3587   0.00806   0.00401  -0.1238  0.5329  0.7826
   6.370   1.3596   0.00806   0.00402  -0.1237  0.5328  0.7826
   6.380   1.3604   0.00806   0.00402  -0.1237  0.5328  0.7827
   6.390   1.3615   0.00807   0.00402  -0.1237  0.5328  0.7827
   6.400   1.3624   0.00807   0.00402  -0.1237  0.5327  0.7827
   6.410   1.3632   0.00807   0.00403  -0.1236  0.5326  0.7827
   6.420   1.3642   0.00807   0.00403  -0.1236  0.5326  0.7827
   6.430   1.3651   0.00807   0.00403  -0.1236  0.5325  0.7828
   6.440   1.3659   0.00807   0.00403  -0.1236  0.5324  0.7828
   6.450   1.3670   0.00808   0.00404  -0.1236  0.5324  0.7828
   6.460   1.3679   0.00808   0.00404  -0.1236  0.5323  0.7828
   6.470   1.3688   0.00808   0.00404  -0.1236  0.5323  0.7829
   6.480   1.3697   0.00808   0.00404  -0.1235  0.5322  0.7829
   6.490   1.3706   0.00808   0.00405  -0.1235  0.5322  0.7829
   6.500   1.3716   0.00808   0.00405  -0.1235  0.5321  0.7829
   6.510   1.3725   0.00809   0.00405  -0.1235  0.5321  0.7829
   6.520   1.3734   0.00809   0.00406  -0.1235  0.5320  0.7830
   6.530   1.3743   0.00809   0.00406  -0.1234  0.5319  0.7830
   6.540   1.3753   0.00809   0.00406  -0.1234  0.5319  0.7830
   6.550   1.3761   0.00809   0.00406  -0.1234  0.5318  0.7830
   6.560   1.3770   0.00809   0.00407  -0.1234  0.5318  0.7831
   6.570   1.3780   0.00809   0.00407  -0.1234  0.5317  0.7831
   6.580   1.3789   0.00810   0.00407  -0.1233  0.5317  0.7831
   6.590   1.3798   0.00810   0.00407  -0.1233  0.5316  0.7831
   6.600   1.3808   0.00810   0.00408  -0.1233  0.5315  0.7832
   6.610   1.3816   0.00810   0.00408  -0.1233  0.5315  0.7832
   6.620   1.3826   0.00810   0.00408  -0.1233  0.5314  0.7832
   6.630   1.3835   0.00810   0.00408  -0.1232  0.5313  0.7832
   6.640   1.3845   0.00811   0.00409  -0.1232  0.5313  0.7832
   6.650   1.3853   0.00811   0.00409  -0.1232  0.5312  0.7833
   6.660   1.3863   0.00811   0.00409  -0.1232  0.5312  0.7833
   6.670   1.3872   0.00811   0.00409  -0.1232  0.5311  0.7833
   6.680   1.3879   0.00811   0.00409  -0.1231  0.5310  0.7833
   6.690   1.3891   0.00811   0.00410  -0.1231  0.5310  0.7834
   6.700   1.3900   0.00812   0.00410  -0.1231  0.5309  0.7834
   6.710   1.3909   0.00812   0.00410  -0.1231  0.5308  0.7834
   6.720   1.3918   0.00812   0.00411  -0.1231  0.5308  0.7834
   6.730   1.3927   0.00812   0.00411  -0.1230  0.5307  0.7834
   6.740   1.3936   0.00812   0.00411  -0.1230  0.5307  0.7835
   6.750   1.3945   0.00812   0.00411  -0.1230  0.5306  0.7835
   6.760   1.3954   0.00813   0.00411  -0.1230  0.5305  0.7835
   6.770   1.3963   0.00813   0.00412  -0.1230  0.5305  0.7835
   6.780   1.3973   0.00813   0.00412  -0.1230  0.5304  0.7836
   6.790   1.3982   0.00813   0.00412  -0.1229  0.5303  0.7836
   6.800   1.3992   0.00813   0.00413  -0.1229  0.5303  0.7836
   6.810   1.4001   0.00813   0.00413  -0.1229  0.5303  0.7836
   6.820   1.4009   0.00814   0.00413  -0.1229  0.5302  0.7837
   6.830   1.4019   0.00814   0.00413  -0.1229  0.5301  0.7837
   6.840   1.4028   0.00814   0.00413  -0.1228  0.5300  0.7837
   6.850   1.4038   0.00814   0.00414  -0.1228  0.5300  0.7837
   6.860   1.4047   0.00814   0.00414  -0.1228  0.5299  0.7837
   6.870   1.4055   0.00814   0.00414  -0.1228  0.5298  0.7838
   6.880   1.4064   0.00814   0.00414  -0.1228  0.5298  0.7838
   6.890   1.4075   0.00815   0.00415  -0.1228  0.5298  0.7838
   6.900   1.4084   0.00815   0.00415  -0.1227  0.5297  0.7838
   6.910   1.4092   0.00815   0.00415  -0.1227  0.5296  0.7839
   6.920   1.4101   0.00815   0.00415  -0.1227  0.5295  0.7839
   6.930   1.4110   0.00815   0.00416  -0.1227  0.5295  0.7839
   6.940   1.4120   0.00816   0.00416  -0.1227  0.5294  0.7839
   6.950   1.4130   0.00816   0.00417  -0.1227  0.5294  0.7840
   6.960   1.4137   0.00816   0.00416  -0.1226  0.5293  0.7840
   6.970   1.4147   0.00816   0.00417  -0.1226  0.5292  0.7840
   6.980   1.4157   0.00816   0.00417  -0.1226  0.5292  0.7840
   6.990   1.4166   0.00817   0.00417  -0.1226  0.5291  0.7841
   7.000   1.4175   0.00817   0.00418  -0.1226  0.5291  0.7841
   7.010   1.4184   0.00817   0.00418  -0.1225  0.5290  0.7841
   7.020   1.4193   0.00817   0.00418  -0.1225  0.5289  0.7841
   7.030   1.4203   0.00817   0.00418  -0.1225  0.5289  0.7842
   7.040   1.4212   0.00818   0.00419  -0.1225  0.5288  0.7842
   7.050   1.4220   0.00818   0.00419  -0.1225  0.5287  0.7842
   7.060   1.4231   0.00818   0.00419  -0.1225  0.5287  0.7842
   7.070   1.4239   0.00818   0.00420  -0.1224  0.5286  0.7843
   7.080   1.4249   0.00819   0.00420  -0.1224  0.5286  0.7843
   7.090   1.4258   0.00819   0.00420  -0.1224  0.5285  0.7843
   7.100   1.4266   0.00819   0.00420  -0.1224  0.5284  0.7843
   7.110   1.4276   0.00819   0.00421  -0.1224  0.5284  0.7844
   7.120   1.4284   0.00820   0.00421  -0.1223  0.5283  0.7844
   7.130   1.4293   0.00820   0.00421  -0.1223  0.5282  0.7844
   7.140   1.4304   0.00820   0.00422  -0.1223  0.5282  0.7844
   7.150   1.4313   0.00821   0.00422  -0.1223  0.5281  0.7845
   7.160   1.4323   0.00821   0.00422  -0.1223  0.5281  0.7845
   7.170   1.4330   0.00821   0.00422  -0.1222  0.5279  0.7845
   7.180   1.4340   0.00821   0.00423  -0.1222  0.5279  0.7846
   7.190   1.4349   0.00822   0.00423  -0.1222  0.5279  0.7846
   7.200   1.4358   0.00822   0.00423  -0.1222  0.5278  0.7846
   7.210   1.4366   0.00822   0.00424  -0.1222  0.5276  0.7846
   7.220   1.4376   0.00823   0.00424  -0.1222  0.5276  0.7847
   7.230   1.4385   0.00823   0.00424  -0.1221  0.5275  0.7847
   7.240   1.4394   0.00823   0.00425  -0.1221  0.5274  0.7847
   7.250   1.4402   0.00824   0.00425  -0.1221  0.5273  0.7847
   7.260   1.4413   0.00824   0.00425  -0.1221  0.5273  0.7848
   7.270   1.4422   0.00824   0.00426  -0.1221  0.5273  0.7848
   7.280   1.4431   0.00825   0.00426  -0.1221  0.5272  0.7848
   7.290   1.4440   0.00825   0.00426  -0.1220  0.5271  0.7848
   7.300   1.4449   0.00825   0.00427  -0.1220  0.5271  0.7849
   7.310   1.4458   0.00826   0.00427  -0.1220  0.5270  0.7849
   7.320   1.4467   0.00826   0.00428  -0.1220  0.5269  0.7849
   7.330   1.4476   0.00827   0.00428  -0.1220  0.5268  0.7850
   7.340   1.4485   0.00827   0.00428  -0.1219  0.5267  0.7850
   7.350   1.4494   0.00828   0.00429  -0.1219  0.5266  0.7850
   7.360   1.4503   0.00828   0.00429  -0.1219  0.5266  0.7851
   7.370   1.4512   0.00829   0.00430  -0.1219  0.5264  0.7851
   7.380   1.4522   0.00829   0.00430  -0.1219  0.5264  0.7851
   7.390   1.4531   0.00829   0.00430  -0.1219  0.5263  0.7851
   7.400   1.4540   0.00830   0.00431  -0.1219  0.5262  0.7852
   7.410   1.4550   0.00830   0.00431  -0.1218  0.5262  0.7852
   7.420   1.4560   0.00831   0.00432  -0.1218  0.5261  0.7852
   7.430   1.4568   0.00832   0.00432  -0.1218  0.5260  0.7852
   7.440   1.4577   0.00832   0.00433  -0.1218  0.5258  0.7853
   7.450   1.4588   0.00833   0.00433  -0.1218  0.5258  0.7853
   7.460   1.4597   0.00833   0.00434  -0.1218  0.5258  0.7853
   7.470   1.4607   0.00834   0.00434  -0.1218  0.5256  0.7854
   7.480   1.4616   0.00835   0.00435  -0.1218  0.5255  0.7854
   7.490   1.4626   0.00835   0.00435  -0.1218  0.5255  0.7854
   7.500   1.4635   0.00835   0.00436  -0.1218  0.5254  0.7854
   7.510   1.4642   0.00835   0.00436  -0.1217  0.5253  0.7855
   7.520   1.4653   0.00836   0.00437  -0.1217  0.5253  0.7855
   7.530   1.4660   0.00836   0.00437  -0.1217  0.5252  0.7855
   7.540   1.4669   0.00836   0.00437  -0.1216  0.5252  0.7856
   7.550   1.4678   0.00836   0.00438  -0.1216  0.5251  0.7856
   7.560   1.4687   0.00836   0.00438  -0.1216  0.5251  0.7856
   7.570   1.4696   0.00837   0.00439  -0.1216  0.5251  0.7857
   7.580   1.4704   0.00837   0.00439  -0.1215  0.5250  0.7857
   7.590   1.4711   0.00837   0.00439  -0.1215  0.5249  0.7857
   7.600   1.4722   0.00837   0.00440  -0.1215  0.5249  0.7857
   7.610   1.4730   0.00837   0.00440  -0.1215  0.5248  0.7858
   7.620   1.4740   0.00838   0.00441  -0.1215  0.5248  0.7858
   7.630   1.4748   0.00838   0.00441  -0.1214  0.5247  0.7858
   7.640   1.4756   0.00838   0.00441  -0.1214  0.5246  0.7859
   7.650   1.4766   0.00838   0.00442  -0.1214  0.5246  0.7859
   7.660   1.4774   0.00838   0.00442  -0.1213  0.5245  0.7859
   7.670   1.4783   0.00839   0.00443  -0.1213  0.5244  0.7860
   7.680   1.4791   0.00839   0.00443  -0.1213  0.5243  0.7860
   7.690   1.4802   0.00839   0.00444  -0.1213  0.5244  0.7860
   7.700   1.4810   0.00839   0.00444  -0.1213  0.5243  0.7861
   7.710   1.4818   0.00839   0.00444  -0.1212  0.5242  0.7861
   7.720   1.4827   0.00840   0.00445  -0.1212  0.5241  0.7861
   7.730   1.4836   0.00840   0.00445  -0.1212  0.5240  0.7861
   7.740   1.4845   0.00840   0.00445  -0.1212  0.5239  0.7862
   7.750   1.4855   0.00841   0.00446  -0.1212  0.5239  0.7862
   7.760   1.4864   0.00841   0.00446  -0.1211  0.5239  0.7862
   7.770   1.4872   0.00841   0.00447  -0.1211  0.5238  0.7863
   7.780   1.4880   0.00841   0.00447  -0.1211  0.5236  0.7863
   7.790   1.4887   0.00841   0.00447  -0.1210  0.5234  0.7863
   7.800   1.4899   0.00842   0.00448  -0.1211  0.5236  0.7863
   7.810   1.4907   0.00842   0.00448  -0.1210  0.5234  0.7864
   7.820   1.4917   0.00842   0.00449  -0.1210  0.5234  0.7864
   7.830   1.4926   0.00842   0.00449  -0.1210  0.5233  0.7864
   7.840   1.4934   0.00842   0.00449  -0.1210  0.5231  0.7865
   7.850   1.4943   0.00842   0.00450  -0.1209  0.5231  0.7865
   7.860   1.4953   0.00843   0.00450  -0.1209  0.5230  0.7865
   7.870   1.4962   0.00843   0.00451  -0.1209  0.5230  0.7865
   7.880   1.4971   0.00843   0.00451  -0.1209  0.5229  0.7866
   7.890   1.4980   0.00844   0.00451  -0.1209  0.5228  0.7866
   7.900   1.4990   0.00844   0.00452  -0.1209  0.5228  0.7866
   7.910   1.4998   0.00844   0.00452  -0.1209  0.5226  0.7867
   7.920   1.5007   0.00844   0.00452  -0.1208  0.5226  0.7867
   7.930   1.5016   0.00845   0.00453  -0.1208  0.5225  0.7867
   7.940   1.5025   0.00845   0.00453  -0.1208  0.5224  0.7868
   7.950   1.5034   0.00845   0.00454  -0.1208  0.5223  0.7868
   7.960   1.5043   0.00845   0.00454  -0.1208  0.5222  0.7868
   7.970   1.5053   0.00846   0.00454  -0.1208  0.5221  0.7868
   7.980   1.5062   0.00846   0.00455  -0.1208  0.5221  0.7869
   7.990   1.5070   0.00846   0.00455  -0.1207  0.5219  0.7869
   8.000   1.5079   0.00846   0.00455  -0.1207  0.5218  0.7869
   8.010   1.5087   0.00846   0.00456  -0.1207  0.5217  0.7870
   8.020   1.5098   0.00847   0.00456  -0.1207  0.5217  0.7870
   8.030   1.5107   0.00847   0.00457  -0.1207  0.5216  0.7870
   8.040   1.5117   0.00847   0.00457  -0.1206  0.5216  0.7870
   8.050   1.5126   0.00848   0.00457  -0.1206  0.5215  0.7871
   8.060   1.5134   0.00848   0.00458  -0.1206  0.5213  0.7871
   8.070   1.5144   0.00848   0.00458  -0.1206  0.5213  0.7871
   8.080   1.5152   0.00848   0.00458  -0.1206  0.5211  0.7872
   8.090   1.5162   0.00849   0.00459  -0.1206  0.5211  0.7872
   8.100   1.5171   0.00849   0.00459  -0.1205  0.5210  0.7872
   8.110   1.5180   0.00849   0.00460  -0.1205  0.5210  0.7872
   8.120   1.5189   0.00850   0.00460  -0.1205  0.5208  0.7873
   8.130   1.5198   0.00850   0.00460  -0.1205  0.5208  0.7873
   8.140   1.5207   0.00850   0.00461  -0.1205  0.5207  0.7873
   8.150   1.5216   0.00850   0.00461  -0.1205  0.5206  0.7873
   8.160   1.5225   0.00850   0.00461  -0.1204  0.5204  0.7874
   8.170   1.5234   0.00851   0.00462  -0.1204  0.5204  0.7874
   8.180   1.5243   0.00851   0.00462  -0.1204  0.5203  0.7874
   8.190   1.5252   0.00851   0.00463  -0.1204  0.5202  0.7875
   8.200   1.5261   0.00852   0.00463  -0.1204  0.5201  0.7875
   8.210   1.5270   0.00852   0.00463  -0.1203  0.5200  0.7875
   8.220   1.5279   0.00852   0.00464  -0.1203  0.5200  0.7875
   8.230   1.5287   0.00852   0.00464  -0.1203  0.5198  0.7876
   8.240   1.5296   0.00853   0.00465  -0.1203  0.5197  0.7876
   8.250   1.5305   0.00853   0.00465  -0.1203  0.5196  0.7876
   8.260   1.5314   0.00854   0.00465  -0.1202  0.5196  0.7876
   8.270   1.5322   0.00854   0.00466  -0.1202  0.5194  0.7877
   8.280   1.5331   0.00854   0.00466  -0.1202  0.5194  0.7877
   8.290   1.5339   0.00855   0.00467  -0.1202  0.5193  0.7877
   8.300   1.5349   0.00855   0.00467  -0.1202  0.5193  0.7878
   8.310   1.5355   0.00855   0.00467  -0.1201  0.5190  0.7878
   8.320   1.5365   0.00856   0.00468  -0.1201  0.5191  0.7878
   8.330   1.5372   0.00856   0.00468  -0.1200  0.5189  0.7878
   8.340   1.5383   0.00857   0.00469  -0.1200  0.5189  0.7879
   8.350   1.5389   0.00857   0.00469  -0.1200  0.5187  0.7879
   8.360   1.5397   0.00857   0.00470  -0.1199  0.5186  0.7879
   8.370   1.5405   0.00858   0.00470  -0.1199  0.5185  0.7880
   8.380   1.5414   0.00858   0.00470  -0.1199  0.5185  0.7880
   8.390   1.5422   0.00859   0.00471  -0.1199  0.5184  0.7880
   8.400   1.5429   0.00859   0.00471  -0.1198  0.5182  0.7880
   8.410   1.5440   0.00860   0.00472  -0.1198  0.5183  0.7881
   8.420   1.5446   0.00860   0.00472  -0.1197  0.5181  0.7881
   8.430   1.5455   0.00860   0.00473  -0.1197  0.5181  0.7881
   8.440   1.5463   0.00861   0.00473  -0.1197  0.5180  0.7881
   8.450   1.5470   0.00861   0.00474  -0.1196  0.5178  0.7882
   8.460   1.5477   0.00862   0.00474  -0.1196  0.5177  0.7882
   8.470   1.5486   0.00862   0.00475  -0.1196  0.5176  0.7882
   8.480   1.5495   0.00863   0.00475  -0.1195  0.5176  0.7882
   8.490   1.5501   0.00863   0.00476  -0.1195  0.5174  0.7883
   8.500   1.5509   0.00864   0.00476  -0.1194  0.5174  0.7883
   8.510   1.5517   0.00865   0.00477  -0.1194  0.5172  0.7883
   8.520   1.5524   0.00865   0.00477  -0.1194  0.5171  0.7884
   8.530   1.5531   0.00866   0.00478  -0.1193  0.5170  0.7884
   8.540   1.5540   0.00866   0.00479  -0.1193  0.5170  0.7884
   8.550   1.5546   0.00867   0.00479  -0.1192  0.5168  0.7884
   8.560   1.5557   0.00867   0.00480  -0.1192  0.5168  0.7885
   8.570   1.5561   0.00868   0.00480  -0.1191  0.5166  0.7885
   8.580   1.5571   0.00869   0.00481  -0.1191  0.5166  0.7885
   8.590   1.5579   0.00869   0.00481  -0.1191  0.5165  0.7886
   8.600   1.5586   0.00870   0.00482  -0.1190  0.5164  0.7886
   8.610   1.5591   0.00871   0.00483  -0.1189  0.5162  0.7886
   8.620   1.5600   0.00871   0.00483  -0.1189  0.5161  0.7886
   8.630   1.5608   0.00872   0.00484  -0.1189  0.5161  0.7887
   8.640   1.5614   0.00873   0.00485  -0.1188  0.5159  0.7887
   8.650   1.5622   0.00873   0.00485  -0.1188  0.5158  0.7887
   8.660   1.5630   0.00874   0.00486  -0.1188  0.5158  0.7887
   8.670   1.5637   0.00875   0.00487  -0.1187  0.5156  0.7888
   8.680   1.5646   0.00875   0.00487  -0.1187  0.5156  0.7888
   8.690   1.5654   0.00876   0.00488  -0.1186  0.5154  0.7888
   8.700   1.5663   0.00876   0.00488  -0.1186  0.5153  0.7888
   8.710   1.5672   0.00876   0.00489  -0.1186  0.5152  0.7889
   8.720   1.5682   0.00877   0.00489  -0.1186  0.5152  0.7889
   8.730   1.5691   0.00877   0.00490  -0.1186  0.5151  0.7889
   8.740   1.5700   0.00877   0.00490  -0.1186  0.5150  0.7889
   8.750   1.5709   0.00878   0.00491  -0.1186  0.5150  0.7890
   8.760   1.5719   0.00878   0.00491  -0.1186  0.5149  0.7890
   8.770   1.5728   0.00878   0.00492  -0.1185  0.5147  0.7890
   8.780   1.5737   0.00879   0.00492  -0.1185  0.5146  0.7890
   8.790   1.5746   0.00879   0.00493  -0.1185  0.5146  0.7891
   8.800   1.5756   0.00879   0.00493  -0.1185  0.5145  0.7891
   8.810   1.5765   0.00880   0.00494  -0.1185  0.5143  0.7891
   8.820   1.5774   0.00880   0.00495  -0.1185  0.5143  0.7891
   8.830   1.5783   0.00880   0.00495  -0.1185  0.5142  0.7891
   8.840   1.5792   0.00881   0.00496  -0.1185  0.5142  0.7892
   8.850   1.5802   0.00881   0.00496  -0.1185  0.5141  0.7892
   8.860   1.5810   0.00881   0.00497  -0.1184  0.5138  0.7892
   8.870   1.5820   0.00882   0.00497  -0.1185  0.5139  0.7892
   8.880   1.5829   0.00882   0.00498  -0.1184  0.5139  0.7893
   8.890   1.5837   0.00882   0.00498  -0.1184  0.5136  0.7893
   8.900   1.5847   0.00883   0.00499  -0.1184  0.5135  0.7893
   8.910   1.5856   0.00883   0.00499  -0.1184  0.5134  0.7893
   8.920   1.5865   0.00884   0.00500  -0.1184  0.5133  0.7894
   8.930   1.5874   0.00884   0.00500  -0.1184  0.5133  0.7894
   8.940   1.5883   0.00884   0.00501  -0.1183  0.5131  0.7894
   8.950   1.5892   0.00885   0.00502  -0.1183  0.5131  0.7894
   8.960   1.5901   0.00885   0.00502  -0.1183  0.5128  0.7894
   8.970   1.5910   0.00886   0.00503  -0.1183  0.5128  0.7895
   8.980   1.5919   0.00886   0.00503  -0.1183  0.5127  0.7895
   8.990   1.5928   0.00886   0.00504  -0.1183  0.5126  0.7895
   9.000   1.5936   0.00887   0.00504  -0.1182  0.5124  0.7895
   9.010   1.5945   0.00887   0.00505  -0.1182  0.5123  0.7896
   9.020   1.5954   0.00888   0.00505  -0.1182  0.5121  0.7896
