  
       XFOIL         Version 6.94
  
 Calculated polar for: 1080                                            
  
 1 1 Reynolds number fixed          Mach number fixed         
  
 xtrf =   1.000 (top)        1.000 (bottom)  
 Mach =   0.000     Re =     2.000 e 6     Ncrit =   9.000
  
  alpha     CL        CD       CDp       CM    Top_Xtr Bot_Xtr
 ------- -------- --------- --------- -------- ------- -------
   6.000   1.5555   0.00899   0.00453  -0.1574  0.4246  0.7842
   6.010   1.5559   0.00902   0.00455  -0.1573  0.4233  0.7846
   6.020   1.5575   0.00900   0.00454  -0.1574  0.4243  0.7849
   6.030   1.5587   0.00900   0.00454  -0.1574  0.4246  0.7849
   6.040   1.5591   0.00903   0.00456  -0.1573  0.4232  0.7852
   6.050   1.5602   0.00904   0.00457  -0.1573  0.4232  0.7854
   6.060   1.5616   0.00903   0.00456  -0.1573  0.4238  0.7856
   6.080   1.5628   0.00907   0.00459  -0.1572  0.4224  0.7860
   6.090   1.5635   0.00909   0.00461  -0.1571  0.4218  0.7863
   6.100   1.5646   0.00909   0.00461  -0.1571  0.4220  0.7865
   6.110   1.5661   0.00908   0.00461  -0.1572  0.4225  0.7866
   6.120   1.5665   0.00910   0.00463  -0.1571  0.4216  0.7868
   6.130   1.5675   0.00911   0.00464  -0.1571  0.4215  0.7871
   6.140   1.5683   0.00912   0.00465  -0.1571  0.4212  0.7872
   6.150   1.5692   0.00913   0.00466  -0.1570  0.4211  0.7875
   6.160   1.5699   0.00915   0.00467  -0.1570  0.4207  0.7875
   6.170   1.5712   0.00914   0.00467  -0.1570  0.4209  0.7878
   6.180   1.5718   0.00916   0.00469  -0.1570  0.4205  0.7881
   6.190   1.5730   0.00916   0.00469  -0.1570  0.4206  0.7883
   6.200   1.5739   0.00917   0.00470  -0.1570  0.4200  0.7885
   6.210   1.5749   0.00918   0.00470  -0.1570  0.4199  0.7887
   6.220   1.5759   0.00918   0.00471  -0.1569  0.4195  0.7889
   6.230   1.5770   0.00918   0.00471  -0.1570  0.4200  0.7890
   6.240   1.5780   0.00919   0.00472  -0.1570  0.4196  0.7893
   6.250   1.5791   0.00919   0.00473  -0.1570  0.4197  0.7895
   6.260   1.5801   0.00920   0.00473  -0.1570  0.4196  0.7897
   6.270   1.5804   0.00923   0.00475  -0.1568  0.4172  0.7900
   6.280   1.5821   0.00921   0.00474  -0.1569  0.4191  0.7902
   6.290   1.5831   0.00922   0.00475  -0.1569  0.4189  0.7903
   6.300   1.5840   0.00923   0.00476  -0.1569  0.4182  0.7905
   6.310   1.5849   0.00924   0.00477  -0.1569  0.4177  0.7907
   6.320   1.5861   0.00924   0.00477  -0.1569  0.4182  0.7909
   6.330   1.5869   0.00925   0.00478  -0.1569  0.4176  0.7911
   6.340   1.5880   0.00925   0.00478  -0.1569  0.4178  0.7913
   6.350   1.5886   0.00927   0.00480  -0.1568  0.4166  0.7915
   6.360   1.5899   0.00927   0.00480  -0.1569  0.4171  0.7918
   6.370   1.5907   0.00928   0.00481  -0.1568  0.4165  0.7920
   6.380   1.5917   0.00929   0.00482  -0.1568  0.4164  0.7921
   6.390   1.5922   0.00931   0.00484  -0.1567  0.4154  0.7923
   6.400   1.5936   0.00930   0.00483  -0.1568  0.4161  0.7925
   6.410   1.5941   0.00933   0.00485  -0.1567  0.4150  0.7927
   6.420   1.5953   0.00932   0.00485  -0.1567  0.4153  0.7929
   6.430   1.5957   0.00935   0.00487  -0.1566  0.4143  0.7931
   6.440   1.5968   0.00935   0.00487  -0.1566  0.4144  0.7932
   6.450   1.5981   0.00935   0.00487  -0.1567  0.4148  0.7934
   6.460   1.5982   0.00938   0.00490  -0.1565  0.4135  0.7937
   6.470   1.6000   0.00936   0.00489  -0.1566  0.4144  0.7938
   6.480   1.6005   0.00938   0.00491  -0.1566  0.4138  0.7941
   6.490   1.6011   0.00941   0.00492  -0.1565  0.4132  0.7941
   6.500   1.6013   0.00944   0.00495  -0.1563  0.4123  0.7944
   6.510   1.6031   0.00942   0.00493  -0.1565  0.4131  0.7945
   6.520   1.6030   0.00946   0.00497  -0.1563  0.4119  0.7947
   6.530   1.6048   0.00944   0.00495  -0.1564  0.4127  0.7949
   6.540   1.6057   0.00945   0.00496  -0.1564  0.4125  0.7950
   6.550   1.6072   0.00944   0.00496  -0.1565  0.4130  0.7952
   6.560   1.6074   0.00947   0.00498  -0.1563  0.4122  0.7953
   6.570   1.6079   0.00949   0.00500  -0.1562  0.4116  0.7956
   6.580   1.6096   0.00947   0.00499  -0.1564  0.4123  0.7957
   6.590   1.6101   0.00950   0.00501  -0.1563  0.4118  0.7957
   6.600   1.6109   0.00951   0.00502  -0.1562  0.4110  0.7960
   6.610   1.6118   0.00952   0.00502  -0.1562  0.4107  0.7961
   6.620   1.6128   0.00952   0.00503  -0.1562  0.4107  0.7963
   6.630   1.6139   0.00953   0.00503  -0.1562  0.4107  0.7966
   6.640   1.6150   0.00953   0.00504  -0.1562  0.4109  0.7967
   6.650   1.6159   0.00954   0.00505  -0.1562  0.4106  0.7968
   6.660   1.6169   0.00954   0.00505  -0.1562  0.4104  0.7970
   6.670   1.6177   0.00956   0.00506  -0.1562  0.4098  0.7972
   6.700   1.6208   0.00957   0.00508  -0.1561  0.4097  0.7978
   6.710   1.6217   0.00958   0.00509  -0.1561  0.4095  0.7977
   6.720   1.6230   0.00957   0.00509  -0.1562  0.4102  0.7979
   6.730   1.6234   0.00960   0.00511  -0.1561  0.4086  0.7982
   6.740   1.6244   0.00960   0.00511  -0.1561  0.4087  0.7983
   6.750   1.6254   0.00960   0.00512  -0.1561  0.4086  0.7984
   6.760   1.6256   0.00964   0.00514  -0.1559  0.4070  0.7986
   6.770   1.6271   0.00962   0.00514  -0.1560  0.4079  0.7988
   6.780   1.6278   0.00964   0.00515  -0.1559  0.4072  0.7989
   6.790   1.6291   0.00963   0.00515  -0.1560  0.4079  0.7991
   6.800   1.6292   0.00967   0.00518  -0.1558  0.4063  0.7992
   6.810   1.6299   0.00968   0.00519  -0.1558  0.4059  0.7994
   6.820   1.6316   0.00966   0.00518  -0.1559  0.4068  0.7996
   6.830   1.6324   0.00967   0.00519  -0.1558  0.4066  0.7998
   6.840   1.6329   0.00970   0.00521  -0.1557  0.4058  0.8000
   6.850   1.6333   0.00972   0.00523  -0.1556  0.4050  0.8003
   6.860   1.6341   0.00973   0.00524  -0.1556  0.4048  0.8003
   6.870   1.6350   0.00974   0.00525  -0.1556  0.4046  0.8005
   6.880   1.6359   0.00975   0.00525  -0.1556  0.4046  0.8007
   6.890   1.6372   0.00974   0.00525  -0.1556  0.4049  0.8008
   6.900   1.6384   0.00974   0.00525  -0.1556  0.4051  0.8010
   6.910   1.6380   0.00979   0.00529  -0.1554  0.4037  0.8011
   6.920   1.6389   0.00980   0.00530  -0.1554  0.4036  0.8013
   6.930   1.6400   0.00980   0.00531  -0.1554  0.4036  0.8015
   6.940   1.6400   0.00984   0.00533  -0.1552  0.4028  0.8017
   6.950   1.6410   0.00984   0.00534  -0.1552  0.4027  0.8017
   6.960   1.6420   0.00985   0.00534  -0.1552  0.4026  0.8020
   6.970   1.6427   0.00986   0.00535  -0.1551  0.4021  0.8022
   6.980   1.6439   0.00986   0.00536  -0.1551  0.4025  0.8023
   6.990   1.6445   0.00987   0.00537  -0.1551  0.4015  0.8024
   7.000   1.6457   0.00987   0.00537  -0.1551  0.4022  0.8027
   7.010   1.6468   0.00987   0.00537  -0.1551  0.4024  0.8029
   7.020   1.6459   0.00993   0.00542  -0.1548  0.3989  0.8031
   7.030   1.6485   0.00988   0.00539  -0.1551  0.4019  0.8031
   7.040   1.6494   0.00989   0.00540  -0.1550  0.4017  0.8034
   7.050   1.6495   0.00992   0.00542  -0.1549  0.4000  0.8033
   7.060   1.6506   0.00992   0.00542  -0.1549  0.4002  0.8038
   7.070   1.6510   0.00994   0.00544  -0.1547  0.3994  0.8039
   7.080   1.6521   0.00994   0.00544  -0.1548  0.3996  0.8039
   7.090   1.6522   0.00997   0.00546  -0.1546  0.3985  0.8041
   7.100   1.6541   0.00994   0.00545  -0.1548  0.3998  0.8043
   7.110   1.6537   0.00999   0.00548  -0.1545  0.3980  0.8045
   7.120   1.6549   0.00998   0.00548  -0.1545  0.3983  0.8047
   7.130   1.6556   0.00999   0.00549  -0.1545  0.3980  0.8048
   7.140   1.6563   0.01000   0.00550  -0.1544  0.3978  0.8051
   7.150   1.6569   0.01001   0.00551  -0.1543  0.3975  0.8051
   7.160   1.6562   0.01006   0.00554  -0.1540  0.3959  0.8054
   7.170   1.6563   0.01009   0.00556  -0.1538  0.3953  0.8054
   7.180   1.6543   0.01016   0.00562  -0.1533  0.3921  0.8057
   7.190   1.6576   0.01011   0.00558  -0.1537  0.3950  0.8057
   7.200   1.6583   0.01012   0.00559  -0.1536  0.3948  0.8060
   7.210   1.6560   0.01020   0.00566  -0.1530  0.3907  0.8061
   7.220   1.6587   0.01016   0.00563  -0.1533  0.3932  0.8063
   7.230   1.6563   0.01025   0.00570  -0.1527  0.3890  0.8064
   7.240   1.6556   0.01030   0.00574  -0.1524  0.3874  0.8065
   7.250   1.6546   0.01035   0.00578  -0.1520  0.3861  0.8066
   7.260   1.6542   0.01040   0.00581  -0.1518  0.3850  0.8068
   7.270   1.6545   0.01042   0.00583  -0.1516  0.3841  0.8069
   7.280   1.6574   0.01037   0.00579  -0.1520  0.3861  0.8072
   7.290   1.6551   0.01046   0.00587  -0.1514  0.3824  0.8074
   7.300   1.6607   0.01034   0.00578  -0.1522  0.3872  0.8074
   7.310   1.6635   0.01030   0.00575  -0.1525  0.3888  0.8075
   7.320   1.6581   0.01047   0.00588  -0.1514  0.3827  0.8077
   7.330   1.6556   0.01057   0.00595  -0.1507  0.3792  0.8079
   7.340   1.6613   0.01045   0.00586  -0.1516  0.3846  0.8080
   7.350   1.6480   0.01083   0.00616  -0.1490  0.3707  0.8081
   7.360   1.6584   0.01058   0.00597  -0.1507  0.3793  0.8083
   7.370   1.6652   0.01043   0.00586  -0.1517  0.3859  0.8084
   7.410   1.6616   0.01064   0.00603  -0.1503  0.3783  0.8090
   7.420   1.6582   0.01076   0.00613  -0.1495  0.3746  0.8093
   7.430   1.6539   0.01090   0.00624  -0.1486  0.3699  0.8092
   7.440   1.6547   0.01091   0.00625  -0.1486  0.3699  0.8094
   7.450   1.6565   0.01089   0.00624  -0.1487  0.3704  0.8096
   7.460   1.6600   0.01083   0.00619  -0.1491  0.3727  0.8099
   7.470   1.6429   0.01132   0.00658  -0.1459  0.3582  0.8099
   7.480   1.6528   0.01108   0.00639  -0.1475  0.3653  0.8101
   7.490   1.6575   0.01098   0.00632  -0.1481  0.3687  0.8103
   7.500   1.6605   0.01093   0.00628  -0.1485  0.3702  0.8104
   7.510   1.6510   0.01122   0.00651  -0.1466  0.3615  0.8106
   7.520   1.6569   0.01109   0.00641  -0.1475  0.3660  0.8108
   7.530   1.6578   0.01109   0.00642  -0.1475  0.3660  0.8109
   7.540   1.6535   0.01124   0.00654  -0.1465  0.3613  0.8110
   7.550   1.6552   0.01123   0.00653  -0.1466  0.3619  0.8112
   7.570   1.6548   0.01130   0.00659  -0.1462  0.3605  0.8116
   7.580   1.6502   0.01145   0.00672  -0.1453  0.3560  0.8118
   7.590   1.6546   0.01136   0.00665  -0.1458  0.3594  0.8120
   7.600   1.6612   0.01121   0.00653  -0.1468  0.3632  0.8122
   7.610   1.6510   0.01152   0.00678  -0.1449  0.3546  0.8123
   7.620   1.6518   0.01153   0.00679  -0.1448  0.3545  0.8125
   7.630   1.6484   0.01165   0.00690  -0.1441  0.3517  0.8126
   7.640   1.6599   0.01137   0.00667  -0.1459  0.3600  0.8129
   7.650   1.6433   0.01185   0.00707  -0.1428  0.3465  0.8129
   7.660   1.6511   0.01167   0.00692  -0.1440  0.3519  0.8131
   7.670   1.6572   0.01153   0.00681  -0.1449  0.3555  0.8135
   7.680   1.6637   0.01138   0.00669  -0.1458  0.3602  0.8137
   7.690   1.6391   0.01209   0.00728  -0.1414  0.3420  0.8137
   7.700   1.6540   0.01171   0.00696  -0.1438  0.3516  0.8139
   7.710   1.6387   0.01217   0.00735  -0.1410  0.3404  0.8140
   7.720   1.6562   0.01171   0.00697  -0.1438  0.3519  0.8143
   7.730   1.6559   0.01175   0.00700  -0.1436  0.3513  0.8145
   7.740   1.6432   0.01213   0.00733  -0.1413  0.3420  0.8146
   7.760   1.6426   0.01221   0.00740  -0.1408  0.3404  0.8151
   7.770   1.6271   0.01268   0.00781  -0.1381  0.3297  0.8151
   7.780   1.6569   0.01187   0.00712  -0.1429  0.3491  0.8155
   7.790   1.6357   0.01250   0.00766  -0.1392  0.3342  0.8155
   7.800   1.6457   0.01225   0.00744  -0.1407  0.3403  0.8158
   7.810   1.6337   0.01262   0.00776  -0.1385  0.3324  0.8159
   7.820   1.6429   0.01239   0.00757  -0.1399  0.3370  0.8161
   7.830   1.6392   0.01253   0.00769  -0.1391  0.3345  0.8163
   7.840   1.6408   0.01251   0.00768  -0.1392  0.3349  0.8166
   7.850   1.6372   0.01265   0.00780  -0.1384  0.3328  0.8167
   7.860   1.6518   0.01226   0.00747  -0.1407  0.3415  0.8171
   7.880   1.6462   0.01249   0.00767  -0.1394  0.3361  0.8174
   7.890   1.6435   0.01260   0.00776  -0.1388  0.3343  0.8177
   7.900   1.6548   0.01231   0.00752  -0.1405  0.3414  0.8179
   7.910   1.6447   0.01263   0.00779  -0.1387  0.3342  0.8179
   7.920   1.6384   0.01284   0.00799  -0.1375  0.3297  0.8182
   7.930   1.6614   0.01221   0.00745  -0.1411  0.3436  0.8185
   7.940   1.6263   0.01326   0.00836  -0.1353  0.3223  0.8186
   7.950   1.6335   0.01308   0.00820  -0.1362  0.3258  0.8188
   7.960   1.6435   0.01282   0.00798  -0.1377  0.3313  0.8190
   7.970   1.6307   0.01323   0.00834  -0.1355  0.3240  0.8191
   7.980   1.6097   0.01392   0.00897  -0.1321  0.3122  0.8192
   7.990   1.6407   0.01301   0.00815  -0.1367  0.3279  0.8195
   8.010   1.6093   0.01404   0.00909  -0.1316  0.3110  0.8197
   8.020   1.6424   0.01305   0.00820  -0.1365  0.3277  0.8201
   8.030   1.6074   0.01418   0.00922  -0.1310  0.3096  0.8200
   8.040   1.6358   0.01331   0.00844  -0.1352  0.3241  0.8205
   8.050   1.6242   0.01371   0.00879  -0.1332  0.3173  0.8205
   8.060   1.6163   0.01400   0.00906  -0.1319  0.3131  0.8205
   8.070   1.6290   0.01362   0.00873  -0.1337  0.3188  0.8211
   8.080   1.6377   0.01339   0.00852  -0.1349  0.3236  0.8212
   8.090   1.6407   0.01333   0.00847  -0.1352  0.3248  0.8216
   8.100   1.6214   0.01397   0.00906  -0.1321  0.3147  0.8216
   8.110   1.6476   0.01319   0.00835  -0.1359  0.3271  0.8220
   8.120   1.6291   0.01380   0.00890  -0.1329  0.3174  0.8220
   8.130   1.6400   0.01349   0.00863  -0.1344  0.3228  0.8223
   8.140   1.6198   0.01417   0.00925  -0.1312  0.3124  0.8223
   8.150   1.6328   0.01378   0.00890  -0.1330  0.3181  0.8226
   8.160   1.6378   0.01366   0.00879  -0.1336  0.3203  0.8230
   8.170   1.6073   0.01472   0.00977  -0.1291  0.3069  0.8229
   8.180   1.6468   0.01345   0.00861  -0.1347  0.3247  0.8235
   8.190   1.6184   0.01440   0.00949  -0.1303  0.3104  0.8235
   8.200   1.6338   0.01393   0.00905  -0.1324  0.3174  0.8238
   8.210   1.6184   0.01448   0.00957  -0.1301  0.3099  0.8240
   8.220   1.6218   0.01440   0.00950  -0.1304  0.3111  0.8241
   8.230   1.6394   0.01385   0.00899  -0.1328  0.3188  0.8244
   8.240   1.6251   0.01437   0.00947  -0.1306  0.3122  0.8246
   8.250   1.6343   0.01409   0.00922  -0.1318  0.3165  0.8249
   8.260   1.6238   0.01449   0.00959  -0.1301  0.3111  0.8252
   8.270   1.6424   0.01390   0.00905  -0.1327  0.3191  0.8255
   8.280   1.6039   0.01531   0.01037  -0.1272  0.3028  0.8255
   8.290   1.6115   0.01506   0.01014  -0.1280  0.3060  0.8258
   8.300   1.6203   0.01477   0.00987  -0.1291  0.3089  0.8261
   8.310   1.6276   0.01455   0.00966  -0.1300  0.3116  0.8262
   8.320   1.6126   0.01514   0.01023  -0.1278  0.3060  0.8263
   8.330   1.6229   0.01480   0.00990  -0.1290  0.3092  0.8266
   8.340   1.6126   0.01523   0.01032  -0.1275  0.3055  0.8272
   8.350   1.6000   0.01580   0.01087  -0.1258  0.3006  0.8273
   8.360   1.6286   0.01471   0.00983  -0.1294  0.3109  0.8274
   8.370   1.6130   0.01535   0.01044  -0.1272  0.3051  0.8275
   8.380   1.6137   0.01536   0.01046  -0.1272  0.3052  0.8279
   8.390   1.6197   0.01517   0.01028  -0.1279  0.3075  0.8279
   8.400   1.6225   0.01511   0.01022  -0.1281  0.3081  0.8283
   8.410   1.6182   0.01532   0.01043  -0.1274  0.3067  0.8285
   8.420   1.5879   0.01674   0.01182  -0.1237  0.2963  0.8291
   8.430   1.5880   0.01680   0.01187  -0.1236  0.2963  0.8293
   8.440   1.6006   0.01622   0.01131  -0.1249  0.3000  0.8295
   8.450   1.5848   0.01709   0.01217  -0.1231  0.2951  0.8298
   8.460   1.6190   0.01552   0.01063  -0.1269  0.3061  0.8296
   8.470   1.6163   0.01568   0.01079  -0.1264  0.3047  0.8300
   8.480   1.6082   0.01608   0.01119  -0.1254  0.3017  0.8301
   8.490   1.6008   0.01649   0.01159  -0.1244  0.2996  0.8303
   8.500   1.6131   0.01597   0.01108  -0.1257  0.3031  0.8304
   8.530   1.5845   0.01766   0.01276  -0.1225  0.2946  0.8315
   8.540   1.6139   0.01613   0.01125  -0.1254  0.3029  0.8311
   8.550   1.6116   0.01629   0.01141  -0.1250  0.3021  0.8315
   8.560   1.6005   0.01691   0.01203  -0.1237  0.2993  0.8318
   8.570   1.5915   0.01750   0.01262  -0.1228  0.2967  0.8322
   8.580   1.5908   0.01762   0.01274  -0.1227  0.2964  0.8322
   8.590   1.6039   0.01691   0.01204  -0.1238  0.2999  0.8326
   8.600   1.5806   0.01852   0.01365  -0.1218  0.2932  0.8330
   8.610   1.6018   0.01715   0.01229  -0.1234  0.2994  0.8328
   8.620   1.5815   0.01863   0.01377  -0.1218  0.2933  0.8336
   8.630   1.5726   0.01951   0.01466  -0.1213  0.2909  0.8339
   8.640   1.6044   0.01720   0.01235  -0.1234  0.2998  0.8336
   8.650   1.5761   0.01940   0.01454  -0.1214  0.2916  0.8340
   8.660   1.5766   0.01946   0.01461  -0.1214  0.2916  0.8345
