  
       XFOIL         Version 6.94
  
 Calculated polar for: 1080                                            
  
 1 1 Reynolds number fixed          Mach number fixed         
  
 xtrf =   1.000 (top)        1.000 (bottom)  
 Mach =   0.000     Re =     2.000 e 6     Ncrit =   9.000
  
  alpha     CL        CD       CDp       CM    Top_Xtr Bot_Xtr
 ------- -------- --------- --------- -------- ------- -------
   6.000   1.1928   0.00943   0.00425  -0.1057  0.3769  0.5147
   6.010   1.1934   0.00944   0.00426  -0.1056  0.3767  0.5149
   6.020   1.1939   0.00945   0.00427  -0.1055  0.3763  0.5150
   6.030   1.1946   0.00946   0.00427  -0.1055  0.3759  0.5151
   6.040   1.1954   0.00947   0.00428  -0.1054  0.3756  0.5152
   6.050   1.1961   0.00948   0.00429  -0.1053  0.3752  0.5155
   6.060   1.1968   0.00949   0.00430  -0.1053  0.3749  0.5157
   6.070   1.1975   0.00949   0.00431  -0.1052  0.3746  0.5158
   6.080   1.1982   0.00950   0.00431  -0.1051  0.3742  0.5159
   6.090   1.1989   0.00951   0.00432  -0.1051  0.3739  0.5160
   6.100   1.1996   0.00952   0.00433  -0.1050  0.3735  0.5163
   6.110   1.2002   0.00953   0.00434  -0.1049  0.3731  0.5164
   6.120   1.2009   0.00954   0.00435  -0.1048  0.3727  0.5165
   6.130   1.2016   0.00955   0.00436  -0.1047  0.3724  0.5166
   6.140   1.2021   0.00956   0.00437  -0.1046  0.3720  0.5168
   6.150   1.2027   0.00957   0.00438  -0.1046  0.3715  0.5169
   6.160   1.2035   0.00958   0.00439  -0.1045  0.3713  0.5171
   6.170   1.2040   0.00960   0.00440  -0.1044  0.3709  0.5172
   6.180   1.2045   0.00961   0.00441  -0.1043  0.3704  0.5173
   6.190   1.2051   0.00962   0.00442  -0.1042  0.3701  0.5175
   6.200   1.2056   0.00963   0.00443  -0.1041  0.3697  0.5175
   6.210   1.2064   0.00964   0.00444  -0.1040  0.3695  0.5177
   6.220   1.2069   0.00965   0.00445  -0.1039  0.3691  0.5179
   6.230   1.2073   0.00967   0.00447  -0.1038  0.3686  0.5181
   6.240   1.2078   0.00969   0.00448  -0.1037  0.3682  0.5182
   6.250   1.2083   0.00970   0.00449  -0.1036  0.3679  0.5183
   6.260   1.2088   0.00971   0.00450  -0.1035  0.3675  0.5184
   6.270   1.2094   0.00973   0.00451  -0.1034  0.3672  0.5186
   6.280   1.2098   0.00974   0.00453  -0.1033  0.3668  0.5187
   6.290   1.2103   0.00976   0.00454  -0.1032  0.3665  0.5189
   6.300   1.2105   0.00978   0.00456  -0.1030  0.3659  0.5189
   6.310   1.2114   0.00979   0.00456  -0.1030  0.3659  0.5190
   6.320   1.2118   0.00980   0.00458  -0.1029  0.3653  0.5192
   6.330   1.2128   0.00981   0.00458  -0.1028  0.3653  0.5194
   6.340   1.2134   0.00982   0.00459  -0.1028  0.3648  0.5195
   6.350   1.2142   0.00983   0.00460  -0.1027  0.3647  0.5196
   6.360   1.2148   0.00984   0.00461  -0.1026  0.3642  0.5197
   6.370   1.2156   0.00985   0.00462  -0.1026  0.3640  0.5199
   6.410   1.2181   0.00989   0.00466  -0.1023  0.3623  0.5205
   6.420   1.2190   0.00990   0.00467  -0.1022  0.3622  0.5207
   6.430   1.2195   0.00991   0.00468  -0.1021  0.3616  0.5208
   6.440   1.2203   0.00992   0.00469  -0.1021  0.3615  0.5209
   6.450   1.2207   0.00993   0.00470  -0.1019  0.3609  0.5211
   6.460   1.2213   0.00995   0.00471  -0.1019  0.3606  0.5212
   6.470   1.2221   0.00995   0.00472  -0.1018  0.3605  0.5214
   6.480   1.2226   0.00997   0.00474  -0.1017  0.3600  0.5217
   6.490   1.2231   0.00998   0.00475  -0.1016  0.3596  0.5219
   6.500   1.2238   0.00999   0.00476  -0.1015  0.3594  0.5218
   6.510   1.2239   0.01001   0.00478  -0.1014  0.3587  0.5220
   6.520   1.2246   0.01002   0.00479  -0.1013  0.3586  0.5222
   6.530   1.2250   0.01004   0.00480  -0.1012  0.3581  0.5223
   6.540   1.2256   0.01005   0.00481  -0.1011  0.3578  0.5226
   6.550   1.2262   0.01006   0.00483  -0.1010  0.3576  0.5226
   6.560   1.2269   0.01007   0.00484  -0.1009  0.3575  0.5228
   6.570   1.2271   0.01009   0.00485  -0.1008  0.3569  0.5229
   6.580   1.2278   0.01010   0.00486  -0.1007  0.3568  0.5230
   6.590   1.2281   0.01012   0.00488  -0.1006  0.3564  0.5232
   6.600   1.2283   0.01014   0.00490  -0.1004  0.3559  0.5232
   6.610   1.2291   0.01015   0.00491  -0.1004  0.3558  0.5235
   6.620   1.2288   0.01018   0.00493  -0.1001  0.3548  0.5237
   6.630   1.2297   0.01019   0.00494  -0.1001  0.3549  0.5238
   6.640   1.2305   0.01020   0.00495  -0.1001  0.3548  0.5238
   6.650   1.2313   0.01020   0.00496  -0.1000  0.3547  0.5241
   6.660   1.2319   0.01022   0.00497  -0.0999  0.3542  0.5242
   6.670   1.2328   0.01022   0.00497  -0.0999  0.3543  0.5245
   6.680   1.2331   0.01024   0.00499  -0.0998  0.3534  0.5247
   6.690   1.2337   0.01025   0.00500  -0.0997  0.3530  0.5248
   6.700   1.2345   0.01026   0.00501  -0.0996  0.3529  0.5249
   6.710   1.2353   0.01027   0.00502  -0.0996  0.3528  0.5251
   6.720   1.2358   0.01028   0.00503  -0.0995  0.3522  0.5252
   6.730   1.2366   0.01029   0.00504  -0.0994  0.3522  0.5253
   6.740   1.2369   0.01031   0.00506  -0.0993  0.3515  0.5255
   6.750   1.2380   0.01031   0.00506  -0.0993  0.3517  0.5258
   6.760   1.2383   0.01033   0.00508  -0.0992  0.3510  0.5258
   6.770   1.2390   0.01034   0.00509  -0.0991  0.3509  0.5261
   6.780   1.2396   0.01035   0.00510  -0.0990  0.3504  0.5262
   6.790   1.2401   0.01037   0.00512  -0.0989  0.3501  0.5265
   6.800   1.2408   0.01038   0.00513  -0.0989  0.3499  0.5266
   6.810   1.2411   0.01040   0.00514  -0.0987  0.3493  0.5268
   6.820   1.2421   0.01040   0.00515  -0.0987  0.3494  0.5268
   6.830   1.2423   0.01042   0.00517  -0.0986  0.3488  0.5269
   6.840   1.2427   0.01044   0.00519  -0.0985  0.3484  0.5272
   6.850   1.2431   0.01046   0.00520  -0.0983  0.3480  0.5273
   6.860   1.2439   0.01047   0.00521  -0.0983  0.3479  0.5275
   6.870   1.2441   0.01049   0.00523  -0.0981  0.3474  0.5278
   6.880   1.2450   0.01049   0.00524  -0.0981  0.3474  0.5279
   6.890   1.2453   0.01051   0.00525  -0.0980  0.3471  0.5280
   6.900   1.2457   0.01053   0.00527  -0.0979  0.3467  0.5282
   6.910   1.2458   0.01055   0.00529  -0.0977  0.3463  0.5285
   6.920   1.2468   0.01056   0.00529  -0.0977  0.3463  0.5286
   6.930   1.2470   0.01058   0.00531  -0.0975  0.3459  0.5286
   6.940   1.2473   0.01060   0.00533  -0.0974  0.3455  0.5288
   6.950   1.2474   0.01063   0.00535  -0.0972  0.3450  0.5290
   6.960   1.2479   0.01064   0.00537  -0.0972  0.3448  0.5291
   6.970   1.2484   0.01065   0.00538  -0.0971  0.3446  0.5293
   6.980   1.2489   0.01067   0.00540  -0.0970  0.3443  0.5294
   6.990   1.2497   0.01068   0.00541  -0.0969  0.3441  0.5296
   7.000   1.2503   0.01069   0.00542  -0.0968  0.3438  0.5299
   7.010   1.2509   0.01070   0.00543  -0.0968  0.3435  0.5298
   7.020   1.2517   0.01071   0.00544  -0.0967  0.3434  0.5302
   7.030   1.2523   0.01073   0.00545  -0.0966  0.3431  0.5303
   7.040   1.2531   0.01074   0.00546  -0.0966  0.3430  0.5303
   7.050   1.2535   0.01075   0.00548  -0.0965  0.3425  0.5305
   7.060   1.2543   0.01076   0.00549  -0.0964  0.3424  0.5307
   7.070   1.2550   0.01077   0.00550  -0.0964  0.3421  0.5309
   7.080   1.2556   0.01079   0.00551  -0.0963  0.3419  0.5310
