  
       XFOIL         Version 6.94
  
 Calculated polar for: 1080                                            
  
 1 1 Reynolds number fixed          Mach number fixed         
  
 xtrf =   1.000 (top)        1.000 (bottom)  
 Mach =   0.000     Re =     2.000 e 6     Ncrit =   9.000
  
  alpha     CL        CD       CDp       CM    Top_Xtr Bot_Xtr
 ------- -------- --------- --------- -------- ------- -------
   6.000   1.0980   0.01164   0.00677  -0.0629  0.4484  0.6661
   6.010   1.0980   0.01158   0.00678  -0.0628  0.4483  0.6877
   6.020   1.0987   0.01157   0.00679  -0.0627  0.4482  0.6915
   6.030   1.0998   0.01160   0.00679  -0.0627  0.4483  0.6864
   6.040   1.1004   0.01159   0.00680  -0.0627  0.4480  0.6911
   6.050   1.1013   0.01161   0.00681  -0.0627  0.4479  0.6887
   6.060   1.1021   0.01161   0.00682  -0.0626  0.4478  0.6905
   6.070   1.1028   0.01161   0.00683  -0.0626  0.4479  0.6948
   6.080   1.1037   0.01162   0.00684  -0.0626  0.4477  0.6932
   6.090   1.1046   0.01164   0.00685  -0.0626  0.4476  0.6914
   6.100   1.1053   0.01164   0.00686  -0.0626  0.4475  0.6943
   6.110   1.1060   0.01164   0.00687  -0.0625  0.4474  0.6963
   6.120   1.1069   0.01165   0.00688  -0.0625  0.4473  0.6962
   6.130   1.1078   0.01166   0.00688  -0.0625  0.4472  0.6946
   6.140   1.1087   0.01168   0.00689  -0.0625  0.4472  0.6911
   6.150   1.1094   0.01168   0.00690  -0.0625  0.4471  0.6961
   6.160   1.1102   0.01169   0.00691  -0.0624  0.4469  0.6973
   6.170   1.1111   0.01170   0.00692  -0.0624  0.4469  0.6946
   6.180   1.1118   0.01171   0.00693  -0.0624  0.4468  0.6968
   6.190   1.1125   0.01173   0.00694  -0.0623  0.4465  0.6972
   6.210   1.1140   0.01173   0.00696  -0.0623  0.4465  0.7005
   6.220   1.1150   0.01175   0.00697  -0.0623  0.4464  0.6964
   6.230   1.1159   0.01177   0.00698  -0.0623  0.4464  0.6952
   6.240   1.1166   0.01178   0.00699  -0.0623  0.4462  0.6962
   6.250   1.1172   0.01177   0.00700  -0.0622  0.4462  0.7006
   6.260   1.1181   0.01179   0.00701  -0.0622  0.4461  0.6979
   6.270   1.1186   0.01181   0.00703  -0.0621  0.4458  0.6995
   6.280   1.1196   0.01182   0.00703  -0.0621  0.4458  0.6987
   6.290   1.1201   0.01183   0.00705  -0.0621  0.4456  0.6995
   6.300   1.1209   0.01182   0.00706  -0.0620  0.4457  0.7050
   6.310   1.1216   0.01183   0.00707  -0.0620  0.4456  0.7042
   6.320   1.1223   0.01186   0.00708  -0.0620  0.4454  0.7000
   6.330   1.1233   0.01186   0.00709  -0.0620  0.4454  0.7019
   6.340   1.1239   0.01186   0.00710  -0.0619  0.4453  0.7062
   6.350   1.1248   0.01189   0.00711  -0.0619  0.4452  0.7010
   6.360   1.1256   0.01191   0.00712  -0.0619  0.4451  0.6985
   6.370   1.1260   0.01191   0.00714  -0.0618  0.4449  0.7045
   6.380   1.1269   0.01194   0.00715  -0.0618  0.4448  0.6998
   6.390   1.1275   0.01193   0.00716  -0.0617  0.4448  0.7071
   6.400   1.1281   0.01194   0.00718  -0.0617  0.4446  0.7074
   6.410   1.1287   0.01196   0.00719  -0.0616  0.4445  0.7077
   6.420   1.1298   0.01198   0.00720  -0.0617  0.4445  0.7020
   6.430   1.1298   0.01197   0.00723  -0.0615  0.4442  0.7146
   6.440   1.1310   0.01200   0.00723  -0.0615  0.4442  0.7061
   6.450   1.1315   0.01199   0.00724  -0.0615  0.4442  0.7126
   6.460   1.1323   0.01202   0.00725  -0.0614  0.4440  0.7085
   6.470   1.1331   0.01201   0.00726  -0.0614  0.4440  0.7129
   6.480   1.1335   0.01204   0.00728  -0.0613  0.4437  0.7111
   6.490   1.1343   0.01205   0.00729  -0.0613  0.4436  0.7108
   6.500   1.1357   0.01207   0.00729  -0.0614  0.4436  0.7051
   6.510   1.1367   0.01207   0.00730  -0.0614  0.4434  0.7065
   6.520   1.1375   0.01208   0.00731  -0.0614  0.4434  0.7075
   6.530   1.1383   0.01208   0.00732  -0.0614  0.4434  0.7097
   6.540   1.1391   0.01208   0.00733  -0.0613  0.4433  0.7101
   6.550   1.1404   0.01211   0.00733  -0.0614  0.4433  0.7031
   6.560   1.1409   0.01208   0.00734  -0.0613  0.4432  0.7154
   6.570   1.1420   0.01211   0.00735  -0.0614  0.4431  0.7095
   6.580   1.1428   0.01211   0.00736  -0.0613  0.4431  0.7115
   6.590   1.1437   0.01211   0.00737  -0.0613  0.4430  0.7155
   6.600   1.1449   0.01212   0.00737  -0.0614  0.4428  0.7119
   6.610   1.1459   0.01213   0.00737  -0.0614  0.4428  0.7085
   6.620   1.1467   0.01213   0.00738  -0.0614  0.4427  0.7107
   6.630   1.1478   0.01214   0.00739  -0.0614  0.4425  0.7108
   6.640   1.1485   0.01214   0.00740  -0.0614  0.4425  0.7127
   6.650   1.1496   0.01217   0.00740  -0.0614  0.4426  0.7076
   6.660   1.1506   0.01217   0.00741  -0.0614  0.4424  0.7090
   6.670   1.1511   0.01216   0.00743  -0.0613  0.4425  0.7153
   6.680   1.1524   0.01219   0.00742  -0.0614  0.4423  0.7080
   6.690   1.1534   0.01218   0.00743  -0.0614  0.4420  0.7097
   6.700   1.1540   0.01219   0.00744  -0.0614  0.4421  0.7129
   6.710   1.1548   0.01218   0.00746  -0.0613  0.4421  0.7185
   6.720   1.1558   0.01219   0.00746  -0.0614  0.4420  0.7164
   6.730   1.1569   0.01220   0.00746  -0.0614  0.4417  0.7135
   6.740   1.1579   0.01222   0.00747  -0.0614  0.4417  0.7099
   6.750   1.1587   0.01222   0.00748  -0.0614  0.4417  0.7118
   6.760   1.1593   0.01221   0.00750  -0.0613  0.4416  0.7197
   6.770   1.1604   0.01223   0.00750  -0.0614  0.4414  0.7160
   6.780   1.1617   0.01226   0.00750  -0.0614  0.4414  0.7068
   6.790   1.1625   0.01225   0.00751  -0.0614  0.4412  0.7109
   6.800   1.1632   0.01225   0.00752  -0.0614  0.4411  0.7155
   6.810   1.1642   0.01227   0.00753  -0.0614  0.4412  0.7118
   6.820   1.1648   0.01225   0.00754  -0.0613  0.4410  0.7207
   6.830   1.1661   0.01229   0.00754  -0.0614  0.4408  0.7104
   6.840   1.1665   0.01226   0.00756  -0.0613  0.4408  0.7228
   6.850   1.1676   0.01228   0.00756  -0.0613  0.4407  0.7190
   6.860   1.1687   0.01230   0.00757  -0.0614  0.4406  0.7148
   6.870   1.1697   0.01232   0.00757  -0.0614  0.4405  0.7111
   6.880   1.1700   0.01229   0.00760  -0.0613  0.4403  0.7249
   6.890   1.1709   0.01230   0.00760  -0.0613  0.4403  0.7231
   6.900   1.1721   0.01233   0.00760  -0.0613  0.4401  0.7174
   6.910   1.1730   0.01233   0.00761  -0.0613  0.4400  0.7182
   6.920   1.1736   0.01233   0.00763  -0.0613  0.4401  0.7228
   6.930   1.1744   0.01234   0.00764  -0.0612  0.4398  0.7252
   6.940   1.1756   0.01237   0.00764  -0.0613  0.4396  0.7168
   6.950   1.1765   0.01238   0.00765  -0.0613  0.4396  0.7155
   6.960   1.1771   0.01237   0.00766  -0.0612  0.4395  0.7217
   6.970   1.1781   0.01238   0.00767  -0.0612  0.4396  0.7197
   6.980   1.1790   0.01240   0.00768  -0.0613  0.4393  0.7178
   6.990   1.1799   0.01241   0.00768  -0.0613  0.4392  0.7160
   7.000   1.1804   0.01240   0.00770  -0.0612  0.4391  0.7240
   7.010   1.1816   0.01243   0.00770  -0.0612  0.4390  0.7175
   7.020   1.1820   0.01242   0.00773  -0.0611  0.4389  0.7285
   7.030   1.1831   0.01244   0.00773  -0.0612  0.4387  0.7211
   7.040   1.1833   0.01243   0.00776  -0.0610  0.4384  0.7332
   7.050   1.1845   0.01245   0.00776  -0.0611  0.4386  0.7264
   7.060   1.1852   0.01245   0.00777  -0.0610  0.4385  0.7302
   7.070   1.1865   0.01249   0.00776  -0.0611  0.4384  0.7171
   7.080   1.1869   0.01248   0.00779  -0.0610  0.4382  0.7255
   7.090   1.1874   0.01247   0.00782  -0.0609  0.4382  0.7388
   7.100   1.1886   0.01251   0.00781  -0.0610  0.4380  0.7249
   7.110   1.1890   0.01250   0.00784  -0.0609  0.4378  0.7357
   7.120   1.1897   0.01252   0.00784  -0.0609  0.4374  0.7300
   7.130   1.1909   0.01254   0.00784  -0.0609  0.4376  0.7251
   7.140   1.1914   0.01253   0.00787  -0.0608  0.4376  0.7372
   7.150   1.1922   0.01254   0.00788  -0.0608  0.4376  0.7344
   7.160   1.1928   0.01254   0.00790  -0.0608  0.4374  0.7409
   7.170   1.1937   0.01257   0.00790  -0.0608  0.4373  0.7365
   7.180   1.1944   0.01257   0.00792  -0.0607  0.4371  0.7394
   7.190   1.1954   0.01259   0.00792  -0.0608  0.4371  0.7342
   7.200   1.1958   0.01261   0.00795  -0.0607  0.4366  0.7384
   7.210   1.1968   0.01261   0.00795  -0.0607  0.4368  0.7369
   7.220   1.1975   0.01263   0.00797  -0.0606  0.4365  0.7372
   7.230   1.1982   0.01264   0.00798  -0.0606  0.4365  0.7386
   7.240   1.1989   0.01266   0.00799  -0.0606  0.4363  0.7379
   7.250   1.1996   0.01266   0.00801  -0.0605  0.4363  0.7417
   7.260   1.2002   0.01267   0.00803  -0.0605  0.4360  0.7410
   7.270   1.2014   0.01270   0.00802  -0.0605  0.4360  0.7318
   7.280   1.2020   0.01270   0.00804  -0.0605  0.4360  0.7379
   7.290   1.2027   0.01270   0.00806  -0.0604  0.4360  0.7421
   7.300   1.2035   0.01272   0.00807  -0.0604  0.4358  0.7404
   7.310   1.2039   0.01275   0.00808  -0.0604  0.4354  0.7361
   7.320   1.2049   0.01275   0.00810  -0.0604  0.4355  0.7407
   7.330   1.2057   0.01276   0.00810  -0.0603  0.4354  0.7391
   7.340   1.2064   0.01277   0.00812  -0.0603  0.4353  0.7400
   7.350   1.2069   0.01279   0.00814  -0.0602  0.4351  0.7430
   7.360   1.2077   0.01281   0.00815  -0.0602  0.4349  0.7387
   7.370   1.2081   0.01282   0.00817  -0.0601  0.4347  0.7438
   7.380   1.2086   0.01283   0.00820  -0.0600  0.4347  0.7508
   7.390   1.2097   0.01284   0.00819  -0.0601  0.4346  0.7417
   7.400   1.2109   0.01287   0.00819  -0.0602  0.4345  0.7344
   7.410   1.2111   0.01287   0.00822  -0.0600  0.4344  0.7436
   7.420   1.2115   0.01289   0.00824  -0.0599  0.4341  0.7447
   7.430   1.2125   0.01290   0.00825  -0.0599  0.4341  0.7447
   7.440   1.2131   0.01292   0.00826  -0.0599  0.4340  0.7423
   7.450   1.2135   0.01294   0.00829  -0.0598  0.4337  0.7464
   7.460   1.2144   0.01295   0.00830  -0.0598  0.4336  0.7441
   7.470   1.2156   0.01295   0.00831  -0.0599  0.4339  0.7458
   7.480   1.2162   0.01297   0.00832  -0.0598  0.4337  0.7472
   7.490   1.2171   0.01297   0.00832  -0.0598  0.4300  0.7462
   7.500   1.2174   0.01299   0.00836  -0.0597  0.4335  0.7514
   7.510   1.2182   0.01301   0.00836  -0.0597  0.4333  0.7489
   7.520   1.2187   0.01302   0.00841  -0.0596  0.4331  0.7565
   7.530   1.2196   0.01302   0.00841  -0.0596  0.4329  0.7547
   7.540   1.2204   0.01305   0.00844  -0.0596  0.4331  0.7586
   7.550   1.2215   0.01304   0.00842  -0.0596  0.4329  0.7522
   7.560   1.2222   0.01305   0.00844  -0.0596  0.4328  0.7533
   7.570   1.2236   0.01306   0.00848  -0.0596  0.4305  0.7666
   7.580   1.2241   0.01307   0.00846  -0.0596  0.4327  0.7561
   7.590   1.2249   0.01308   0.00850  -0.0595  0.4325  0.7631
   7.600   1.2259   0.01311   0.00853  -0.0595  0.4324  0.7679
   7.610   1.2267   0.01311   0.00854  -0.0595  0.4324  0.7679
   7.620   1.2277   0.01309   0.00851  -0.0596  0.4321  0.7620
   7.630   1.2289   0.01310   0.00849  -0.0597  0.4318  0.7552
   7.640   1.2296   0.01314   0.00856  -0.0596  0.4320  0.7681
   7.650   1.2305   0.01314   0.00857  -0.0596  0.4318  0.7681
   7.660   1.2316   0.01312   0.00852  -0.0596  0.4318  0.7567
   7.670   1.2266   0.01335   0.00872  -0.0586  0.4216  0.7682
   7.680   1.2326   0.01319   0.00861  -0.0595  0.4279  0.7682
   7.690   1.2340   0.01317   0.00860  -0.0596  0.4314  0.7677
   7.700   1.2347   0.01317   0.00856  -0.0596  0.4285  0.7559
   7.710   1.2361   0.01317   0.00857  -0.0597  0.4311  0.7582
   7.720   1.2368   0.01320   0.00863  -0.0596  0.4309  0.7684
   7.730   1.2377   0.01321   0.00864  -0.0596  0.4307  0.7684
   7.740   1.2384   0.01322   0.00865  -0.0595  0.4308  0.7681
   7.750   1.2394   0.01323   0.00866  -0.0596  0.4309  0.7685
   7.790   1.2427   0.01327   0.00870  -0.0595  0.4303  0.7688
   7.800   1.2436   0.01328   0.00871  -0.0595  0.4299  0.7689
   7.810   1.2444   0.01328   0.00872  -0.0595  0.4299  0.7676
   7.820   1.2447   0.01332   0.00874  -0.0594  0.4284  0.7690
   7.830   1.2461   0.01331   0.00875  -0.0595  0.4296  0.7691
   7.840   1.2469   0.01332   0.00876  -0.0594  0.4296  0.7691
   7.850   1.2466   0.01337   0.00879  -0.0593  0.4272  0.7692
   7.860   1.2485   0.01334   0.00878  -0.0594  0.4293  0.7693
   7.870   1.2492   0.01335   0.00879  -0.0594  0.4292  0.7694
   7.880   1.2493   0.01339   0.00882  -0.0593  0.4274  0.7694
   7.890   1.2509   0.01337   0.00881  -0.0594  0.4291  0.7695
   7.900   1.2516   0.01339   0.00883  -0.0593  0.4285  0.7695
   7.910   1.2524   0.01340   0.00884  -0.0593  0.4286  0.7697
   7.920   1.2532   0.01341   0.00885  -0.0593  0.4285  0.7697
   7.930   1.2540   0.01342   0.00886  -0.0593  0.4283  0.7694
   7.940   1.2544   0.01344   0.00888  -0.0592  0.4276  0.7699
   7.950   1.2552   0.01345   0.00889  -0.0592  0.4275  0.7699
   7.960   1.2562   0.01346   0.00890  -0.0592  0.4280  0.7700
   7.970   1.2571   0.01347   0.00891  -0.0592  0.4279  0.7700
   7.980   1.2579   0.01348   0.00892  -0.0592  0.4277  0.7701
   7.990   1.2582   0.01351   0.00894  -0.0591  0.4269  0.7697
   8.000   1.2593   0.01350   0.00895  -0.0591  0.4274  0.7702
   8.010   1.2594   0.01354   0.00898  -0.0590  0.4265  0.7702
   8.020   1.2609   0.01353   0.00898  -0.0591  0.4273  0.7704
   8.030   1.2574   0.01368   0.00910  -0.0584  0.4234  0.7705
   8.040   1.2607   0.01361   0.00904  -0.0588  0.4254  0.7705
   8.050   1.2578   0.01375   0.00915  -0.0582  0.4182  0.7706
   8.060   1.2591   0.01374   0.00915  -0.0582  0.4194  0.7707
   8.070   1.2642   0.01361   0.00905  -0.0589  0.4262  0.7707
   8.080   1.2651   0.01362   0.00906  -0.0589  0.4262  0.7708
   8.090   1.2657   0.01363   0.00908  -0.0589  0.4259  0.7709
   8.100   1.2666   0.01364   0.00909  -0.0589  0.4260  0.7709
   8.110   1.2671   0.01366   0.00911  -0.0588  0.4257  0.7709
   8.120   1.2643   0.01380   0.00921  -0.0582  0.4225  0.7711
   8.130   1.2680   0.01371   0.00915  -0.0587  0.4250  0.7711
   8.140   1.2695   0.01370   0.00914  -0.0587  0.4256  0.7711
   8.150   1.2671   0.01382   0.00923  -0.0582  0.4215  0.7712
   8.160   1.2679   0.01383   0.00925  -0.0582  0.4204  0.7713
   8.170   1.2686   0.01384   0.00926  -0.0582  0.4198  0.7714
   8.180   1.2710   0.01380   0.00923  -0.0584  0.4240  0.7714
   8.190   1.2653   0.01404   0.00941  -0.0574  0.4133  0.7715
   8.200   1.2684   0.01397   0.00936  -0.0577  0.4153  0.7716
   8.210   1.2692   0.01398   0.00937  -0.0577  0.4152  0.7716
   8.220   1.2728   0.01389   0.00932  -0.0581  0.4196  0.7716
   8.240   1.2762   0.01385   0.00930  -0.0584  0.4241  0.7718
   8.250   1.2755   0.01392   0.00935  -0.0581  0.4223  0.7718
   8.260   1.2731   0.01404   0.00944  -0.0576  0.4148  0.7719
   8.270   1.2773   0.01393   0.00937  -0.0581  0.4218  0.7719
   8.280   1.2784   0.01394   0.00937  -0.0582  0.4233  0.7720
   8.290   1.2790   0.01395   0.00939  -0.0581  0.4218  0.7720
   8.300   1.2798   0.01396   0.00940  -0.0581  0.4221  0.7721
   8.310   1.2805   0.01398   0.00942  -0.0581  0.4224  0.7722
   8.320   1.2813   0.01399   0.00943  -0.0581  0.4229  0.7722
   8.330   1.2824   0.01399   0.00943  -0.0581  0.4217  0.7723
   8.340   1.2833   0.01400   0.00944  -0.0581  0.4218  0.7724
   8.350   1.2819   0.01409   0.00951  -0.0577  0.4160  0.7724
   8.360   1.2849   0.01403   0.00947  -0.0581  0.4199  0.7725
   8.370   1.2793   0.01426   0.00964  -0.0570  0.4114  0.7726
   8.380   1.2867   0.01404   0.00949  -0.0581  0.4220  0.7726
   8.390   1.2876   0.01405   0.00950  -0.0581  0.4215  0.7726
   8.400   1.2817   0.01430   0.00968  -0.0570  0.4110  0.7728
   8.410   1.2832   0.01429   0.00968  -0.0571  0.4128  0.7728
   8.420   1.2835   0.01432   0.00970  -0.0570  0.4115  0.7729
   8.430   1.2900   0.01413   0.00956  -0.0579  0.4176  0.7729
   8.440   1.2904   0.01415   0.00958  -0.0578  0.4171  0.7729
   8.450   1.2847   0.01440   0.00977  -0.0568  0.4080  0.7731
   8.460   1.2930   0.01414   0.00959  -0.0580  0.4186  0.7731
   8.470   1.2936   0.01416   0.00960  -0.0579  0.4181  0.7731
   8.480   1.2953   0.01414   0.00960  -0.0580  0.4207  0.7732
   8.490   1.2961   0.01415   0.00961  -0.0580  0.4205  0.7732
   8.500   1.2902   0.01440   0.00980  -0.0569  0.4122  0.7733
   8.510   1.2893   0.01448   0.00986  -0.0567  0.4075  0.7734
   8.520   1.2985   0.01419   0.00964  -0.0580  0.4199  0.7734
   8.530   1.2994   0.01420   0.00965  -0.0580  0.4199  0.7735
   8.540   1.2987   0.01426   0.00971  -0.0577  0.4168  0.7735
   8.550   1.2914   0.01456   0.00994  -0.0564  0.4060  0.7737
   8.560   1.3017   0.01423   0.00969  -0.0579  0.4194  0.7736
   8.570   1.3016   0.01428   0.00974  -0.0578  0.4174  0.7737
   8.580   1.2958   0.01452   0.00992  -0.0567  0.4088  0.7738
   8.590   1.2971   0.01452   0.00992  -0.0568  0.4096  0.7738
   8.600   1.3031   0.01435   0.00979  -0.0576  0.4162  0.7738
   8.610   1.3056   0.01430   0.00977  -0.0578  0.4187  0.7739
   8.620   1.3015   0.01448   0.00991  -0.0571  0.4135  0.7740
   8.630   1.2992   0.01461   0.01000  -0.0566  0.4075  0.7741
   8.640   1.3006   0.01460   0.01000  -0.0566  0.4083  0.7742
   8.650   1.3081   0.01437   0.00983  -0.0577  0.4172  0.7742
   8.660   1.3013   0.01466   0.01006  -0.0565  0.4068  0.7743
   8.670   1.3101   0.01438   0.00986  -0.0577  0.4177  0.7742
   8.680   1.3028   0.01468   0.01009  -0.0564  0.4066  0.7744
   8.690   1.3047   0.01465   0.01007  -0.0566  0.4084  0.7744
   8.700   1.3027   0.01477   0.01016  -0.0561  0.4047  0.7745
   8.710   1.3028   0.01481   0.01019  -0.0560  0.4041  0.7746
   8.720   1.3077   0.01467   0.01010  -0.0566  0.4089  0.7746
   8.730   1.3080   0.01470   0.01012  -0.0565  0.4080  0.7747
   8.740   1.3090   0.01471   0.01013  -0.0566  0.4084  0.7747
   8.750   1.3108   0.01468   0.01011  -0.0567  0.4114  0.7748
   8.760   1.3045   0.01495   0.01032  -0.0556  0.4018  0.7749
   8.770   1.3117   0.01473   0.01016  -0.0566  0.4087  0.7749
   8.780   1.3069   0.01495   0.01033  -0.0557  0.4027  0.7750
   8.790   1.3142   0.01472   0.01016  -0.0567  0.4116  0.7750
   8.800   1.3147   0.01475   0.01018  -0.0566  0.4098  0.7751
   8.810   1.3151   0.01477   0.01021  -0.0566  0.4087  0.7751
   8.820   1.3161   0.01478   0.01022  -0.0566  0.4092  0.7752
   8.830   1.3124   0.01495   0.01035  -0.0559  0.4037  0.7753
   8.840   1.3145   0.01492   0.01033  -0.0561  0.4047  0.7753
   8.850   1.3184   0.01482   0.01026  -0.0565  0.4086  0.7753
   8.860   1.3153   0.01498   0.01038  -0.0559  0.4039  0.7754
   8.870   1.3173   0.01494   0.01036  -0.0561  0.4050  0.7755
   8.890   1.3155   0.01509   0.01048  -0.0555  0.4020  0.7756
   8.900   1.3220   0.01489   0.01033  -0.0564  0.4076  0.7756
   8.910   1.3242   0.01485   0.01031  -0.0566  0.4114  0.7757
   8.920   1.3217   0.01499   0.01041  -0.0561  0.4051  0.7758
   8.930   1.3194   0.01512   0.01051  -0.0556  0.4026  0.7759
   8.940   1.3222   0.01505   0.01047  -0.0559  0.4041  0.7759
   8.950   1.3227   0.01508   0.01049  -0.0558  0.4038  0.7760
   8.960   1.3283   0.01491   0.01037  -0.0566  0.4110  0.7759
   8.970   1.3254   0.01506   0.01048  -0.0560  0.4047  0.7761
   8.980   1.3228   0.01520   0.01059  -0.0555  0.4008  0.7761
   8.990   1.3254   0.01515   0.01056  -0.0557  0.4033  0.7762
   9.000   1.3306   0.01500   0.01045  -0.0564  0.4079  0.7762
   9.010   1.3208   0.01541   0.01076  -0.0547  0.3945  0.7764
   9.020   1.3252   0.01528   0.01067  -0.0553  0.3987  0.7764
   9.030   1.3280   0.01522   0.01062  -0.0556  0.4028  0.7764
   9.040   1.3280   0.01526   0.01066  -0.0554  0.4016  0.7765
   9.050   1.3289   0.01527   0.01067  -0.0554  0.4017  0.7765
   9.060   1.3285   0.01533   0.01072  -0.0553  0.3987  0.7766
   9.070   1.3351   0.01512   0.01057  -0.0561  0.4059  0.7766
   9.080   1.3296   0.01537   0.01077  -0.0551  0.3980  0.7767
   9.090   1.3239   0.01563   0.01097  -0.0541  0.3920  0.7768
   9.100   1.3316   0.01538   0.01078  -0.0552  0.3985  0.7768
   9.110   1.3332   0.01537   0.01077  -0.0553  0.4000  0.7769
   9.120   1.3335   0.01540   0.01080  -0.0552  0.3990  0.7769
   9.130   1.3379   0.01527   0.01070  -0.0558  0.4039  0.7769
   9.140   1.3348   0.01544   0.01083  -0.0551  0.3984  0.7770
   9.150   1.3265   0.01579   0.01112  -0.0537  0.3879  0.7772
   9.160   1.3404   0.01531   0.01074  -0.0557  0.4039  0.7771
   9.170   1.3378   0.01545   0.01086  -0.0552  0.3993  0.7772
   9.180   1.3391   0.01544   0.01085  -0.0553  0.4007  0.7772
   9.190   1.3426   0.01536   0.01079  -0.0557  0.4037  0.7772
   9.200   1.3320   0.01580   0.01115  -0.0539  0.3902  0.7774
   9.210   1.3292   0.01595   0.01127  -0.0534  0.3853  0.7775
   9.220   1.3377   0.01567   0.01105  -0.0545  0.3943  0.7775
   9.230   1.3414   0.01557   0.01097  -0.0550  0.3974  0.7775
   9.240   1.3372   0.01577   0.01114  -0.0542  0.3929  0.7776
   9.250   1.3450   0.01552   0.01094  -0.0553  0.4011  0.7776
   9.260   1.3363   0.01590   0.01125  -0.0538  0.3890  0.7777
   9.270   1.3435   0.01567   0.01106  -0.0547  0.3960  0.7777
   9.280   1.3360   0.01599   0.01133  -0.0535  0.3864  0.7778
   9.290   1.3403   0.01588   0.01124  -0.0540  0.3920  0.7778
   9.300   1.3484   0.01561   0.01103  -0.0551  0.3995  0.7778
   9.310   1.3394   0.01600   0.01134  -0.0536  0.3875  0.7780
   9.320   1.3475   0.01573   0.01113  -0.0547  0.3960  0.7780
   9.330   1.3393   0.01609   0.01142  -0.0533  0.3855  0.7781
   9.340   1.3470   0.01584   0.01123  -0.0544  0.3939  0.7781
   9.350   1.3332   0.01642   0.01169  -0.0521  0.3768  0.7782
   9.360   1.3374   0.01629   0.01160  -0.0526  0.3818  0.7782
   9.370   1.3390   0.01628   0.01159  -0.0527  0.3824  0.7783
   9.380   1.3386   0.01634   0.01164  -0.0525  0.3810  0.7783
   9.390   1.3453   0.01612   0.01147  -0.0534  0.3867  0.7783
   9.400   1.3396   0.01639   0.01169  -0.0524  0.3799  0.7784
   9.410   1.3519   0.01596   0.01134  -0.0542  0.3933  0.7784
