  
       XFOIL         Version 6.94
  
 Calculated polar for: 1080                                            
  
 1 1 Reynolds number fixed          Mach number fixed         
  
 xtrf =   1.000 (top)        1.000 (bottom)  
 Mach =   0.000     Re =     2.000 e 6     Ncrit =   9.000
  
  alpha     CL        CD       CDp       CM    Top_Xtr Bot_Xtr
 ------- -------- --------- --------- -------- ------- -------
   6.010   1.1771   0.00807   0.00408  -0.1020  0.5765  0.7845
   6.020   1.1803   0.00807   0.00408  -0.1025  0.5774  0.7845
   6.030   1.1807   0.00807   0.00409  -0.1023  0.5771  0.7845
   6.040   1.1786   0.00809   0.00410  -0.1017  0.5758  0.7846
   6.050   1.1785   0.00810   0.00411  -0.1015  0.5753  0.7846
   6.060   1.1841   0.00808   0.00410  -0.1025  0.5772  0.7846
   6.070   1.1794   0.00811   0.00412  -0.1013  0.5748  0.7847
   6.080   1.1805   0.00811   0.00413  -0.1013  0.5748  0.7847
   6.090   1.1824   0.00811   0.00413  -0.1015  0.5752  0.7847
   6.100   1.1860   0.00811   0.00412  -0.1020  0.5763  0.7847
   6.110   1.1867   0.00811   0.00413  -0.1020  0.5761  0.7847
   6.120   1.1870   0.00812   0.00414  -0.1018  0.5758  0.7847
   6.130   1.1894   0.00812   0.00413  -0.1021  0.5764  0.7847
   6.140   1.1896   0.00812   0.00414  -0.1020  0.5760  0.7848
   6.150   1.1806   0.00821   0.00419  -0.0999  0.5716  0.7849
   6.160   1.1828   0.00819   0.00419  -0.1002  0.5722  0.7849
   6.170   1.1911   0.00814   0.00416  -0.1017  0.5753  0.7848
   6.180   1.1936   0.00814   0.00416  -0.1020  0.5760  0.7848
   6.190   1.1938   0.00814   0.00417  -0.1018  0.5756  0.7848
   6.200   1.1906   0.00817   0.00419  -0.1010  0.5738  0.7849
   6.210   1.1961   0.00815   0.00417  -0.1019  0.5757  0.7849
   6.220   1.1929   0.00817   0.00419  -0.1011  0.5739  0.7849
   6.230   1.1983   0.00816   0.00418  -0.1020  0.5757  0.7849
   6.240   1.1960   0.00817   0.00420  -0.1013  0.5743  0.7850
   6.250   1.1982   0.00817   0.00420  -0.1015  0.5748  0.7850
   6.260   1.1969   0.00819   0.00421  -0.1011  0.5739  0.7850
   6.270   1.1988   0.00819   0.00421  -0.1013  0.5742  0.7850
   6.280   1.1973   0.00821   0.00423  -0.1008  0.5732  0.7851
   6.290   1.1952   0.00826   0.00425  -0.1002  0.5717  0.7851
   6.300   1.1981   0.00823   0.00424  -0.1005  0.5726  0.7851
   6.310   1.1985   0.00825   0.00425  -0.1004  0.5724  0.7851
   6.320   1.2035   0.00821   0.00424  -0.1012  0.5740  0.7851
   6.330   1.2023   0.00823   0.00425  -0.1008  0.5731  0.7851
   6.340   1.2052   0.00822   0.00425  -0.1012  0.5739  0.7851
   6.350   1.2024   0.00826   0.00427  -0.1005  0.5722  0.7852
   6.360   1.1981   0.00831   0.00432  -0.0994  0.5693  0.7852
   6.370   1.2028   0.00830   0.00429  -0.1001  0.5712  0.7852
   6.380   1.2002   0.00832   0.00433  -0.0994  0.5693  0.7853
   6.390   1.2098   0.00824   0.00427  -0.1012  0.5736  0.7852
   6.400   1.2126   0.00823   0.00427  -0.1015  0.5743  0.7852
   6.410   1.2105   0.00826   0.00429  -0.1009  0.5731  0.7852
   6.420   1.2046   0.00833   0.00434  -0.0995  0.5696  0.7853
   6.430   1.2088   0.00832   0.00432  -0.1002  0.5711  0.7853
   6.440   1.2122   0.00829   0.00431  -0.1007  0.5724  0.7853
   6.450   1.2125   0.00831   0.00432  -0.1005  0.5721  0.7853
   6.460   1.2124   0.00833   0.00433  -0.1003  0.5715  0.7853
   6.470   1.2052   0.00839   0.00440  -0.0987  0.5665  0.7854
   6.480   1.2096   0.00836   0.00438  -0.0994  0.5689  0.7854
   6.490   1.2144   0.00835   0.00435  -0.1001  0.5709  0.7854
   6.500   1.2163   0.00835   0.00435  -0.1003  0.5713  0.7854
   6.510   1.2183   0.00833   0.00434  -0.1005  0.5719  0.7854
   6.540   1.2141   0.00840   0.00442  -0.0991  0.5679  0.7856
   6.550   1.2183   0.00838   0.00440  -0.0998  0.5699  0.7856
   6.560   1.2137   0.00842   0.00445  -0.0986  0.5662  0.7857
   6.570   1.2209   0.00838   0.00440  -0.0999  0.5702  0.7856
   6.580   1.2201   0.00840   0.00442  -0.0996  0.5692  0.7857
   6.590   1.2255   0.00838   0.00438  -0.1004  0.5712  0.7856
   6.600   1.2194   0.00842   0.00445  -0.0990  0.5674  0.7858
   6.610   1.2191   0.00843   0.00447  -0.0988  0.5666  0.7858
   6.620   1.2183   0.00846   0.00448  -0.0984  0.5655  0.7859
   6.630   1.2213   0.00844   0.00447  -0.0988  0.5667  0.7859
   6.640   1.2254   0.00842   0.00445  -0.0995  0.5688  0.7858
   6.650   1.2262   0.00842   0.00446  -0.0994  0.5686  0.7859
   6.660   1.2239   0.00845   0.00449  -0.0988  0.5665  0.7860
   6.670   1.2221   0.00849   0.00452  -0.0982  0.5649  0.7860
   6.680   1.2228   0.00850   0.00452  -0.0982  0.5647  0.7861
   6.690   1.2272   0.00846   0.00450  -0.0989  0.5667  0.7861
   6.700   1.2281   0.00846   0.00451  -0.0988  0.5667  0.7861
   6.710   1.2206   0.00859   0.00459  -0.0972  0.5622  0.7862
   6.720   1.2266   0.00851   0.00455  -0.0982  0.5647  0.7862
   6.730   1.2273   0.00852   0.00455  -0.0981  0.5645  0.7862
   6.740   1.2315   0.00848   0.00453  -0.0987  0.5662  0.7862
   6.750   1.2349   0.00847   0.00452  -0.0992  0.5678  0.7862
   6.760   1.2323   0.00850   0.00455  -0.0985  0.5656  0.7863
   6.770   1.2264   0.00861   0.00463  -0.0972  0.5622  0.7864
   6.780   1.2309   0.00856   0.00459  -0.0979  0.5639  0.7864
   6.790   1.2340   0.00853   0.00458  -0.0983  0.5649  0.7864
   6.800   1.2307   0.00860   0.00462  -0.0975  0.5630  0.7865
   6.810   1.2291   0.00863   0.00466  -0.0970  0.5603  0.7865
   6.820   1.2317   0.00862   0.00464  -0.0973  0.5626  0.7865
   6.830   1.2338   0.00861   0.00464  -0.0975  0.5631  0.7865
   6.840   1.2321   0.00864   0.00468  -0.0970  0.5604  0.7866
   6.850   1.2334   0.00865   0.00468  -0.0971  0.5611  0.7866
   6.860   1.2341   0.00865   0.00469  -0.0970  0.5606  0.7867
   6.870   1.2359   0.00865   0.00468  -0.0972  0.5620  0.7867
   6.880   1.2374   0.00865   0.00468  -0.0973  0.5626  0.7867
   6.890   1.2378   0.00866   0.00469  -0.0972  0.5619  0.7867
   6.900   1.2438   0.00859   0.00464  -0.0982  0.5644  0.7867
   6.910   1.2388   0.00867   0.00471  -0.0970  0.5606  0.7868
   6.920   1.2479   0.00857   0.00463  -0.0986  0.5655  0.7867
   6.930   1.2409   0.00868   0.00472  -0.0970  0.5607  0.7868
   6.940   1.2418   0.00869   0.00473  -0.0970  0.5607  0.7869
   6.950   1.2436   0.00869   0.00473  -0.0972  0.5618  0.7869
   6.960   1.2432   0.00870   0.00475  -0.0969  0.5599  0.7869
   6.970   1.2430   0.00872   0.00477  -0.0967  0.5586  0.7870
   6.980   1.2449   0.00871   0.00476  -0.0969  0.5596  0.7870
   6.990   1.2476   0.00870   0.00475  -0.0972  0.5620  0.7870
   7.000   1.2431   0.00878   0.00482  -0.0962  0.5565  0.7871
   7.010   1.2480   0.00872   0.00478  -0.0969  0.5600  0.7870
   7.020   1.2501   0.00872   0.00477  -0.0971  0.5615  0.7870
   7.030   1.2508   0.00872   0.00478  -0.0971  0.5612  0.7871
   7.040   1.2514   0.00873   0.00479  -0.0970  0.5606  0.7871
   7.050   1.2508   0.00875   0.00481  -0.0967  0.5587  0.7871
   7.060   1.2509   0.00877   0.00483  -0.0966  0.5579  0.7872
   7.070   1.2539   0.00875   0.00481  -0.0970  0.5601  0.7872
   7.080   1.2537   0.00877   0.00483  -0.0967  0.5586  0.7872
   7.090   1.2530   0.00879   0.00485  -0.0964  0.5573  0.7873
   7.100   1.2561   0.00877   0.00484  -0.0968  0.5592  0.7873
   7.110   1.2611   0.00873   0.00479  -0.0976  0.5630  0.7872
   7.120   1.2542   0.00884   0.00489  -0.0961  0.5562  0.7874
   7.130   1.2601   0.00877   0.00484  -0.0970  0.5606  0.7873
   7.140   1.2561   0.00885   0.00490  -0.0961  0.5562  0.7874
   7.150   1.2520   0.00895   0.00498  -0.0951  0.5534  0.7875
   7.160   1.2575   0.00887   0.00492  -0.0960  0.5559  0.7875
   7.170   1.2618   0.00881   0.00489  -0.0966  0.5582  0.7875
   7.180   1.2602   0.00886   0.00492  -0.0961  0.5564  0.7875
   7.190   1.2628   0.00884   0.00491  -0.0965  0.5574  0.7875
   7.200   1.2566   0.00897   0.00502  -0.0951  0.5528  0.7876
   7.210   1.2622   0.00889   0.00496  -0.0960  0.5558  0.7876
   7.220   1.2651   0.00886   0.00494  -0.0964  0.5571  0.7876
   7.230   1.2660   0.00887   0.00494  -0.0963  0.5570  0.7876
   7.240   1.2644   0.00892   0.00498  -0.0959  0.5556  0.7877
   7.250   1.2692   0.00886   0.00494  -0.0966  0.5579  0.7876
   7.260   1.2621   0.00901   0.00506  -0.0951  0.5523  0.7878
   7.270   1.2678   0.00892   0.00499  -0.0960  0.5559  0.7877
   7.280   1.2643   0.00901   0.00506  -0.0951  0.5538  0.7878
   7.290   1.2691   0.00894   0.00501  -0.0959  0.5556  0.7878
   7.300   1.2661   0.00902   0.00508  -0.0951  0.5535  0.7879
   7.310   1.2670   0.00903   0.00509  -0.0951  0.5528  0.7879
   7.320   1.2714   0.00897   0.00504  -0.0957  0.5553  0.7879
   7.330   1.2731   0.00896   0.00504  -0.0959  0.5557  0.7879
   7.340   1.2697   0.00905   0.00511  -0.0951  0.5525  0.7880
   7.350   1.2765   0.00894   0.00503  -0.0962  0.5565  0.7879
   7.360   1.2718   0.00906   0.00512  -0.0951  0.5538  0.7880
   7.370   1.2733   0.00905   0.00511  -0.0952  0.5542  0.7880
   7.380   1.2748   0.00904   0.00511  -0.0953  0.5544  0.7881
   7.390   1.2744   0.00907   0.00514  -0.0950  0.5528  0.7881
   7.400   1.2755   0.00908   0.00514  -0.0951  0.5535  0.7881
   7.410   1.2766   0.00908   0.00515  -0.0951  0.5540  0.7881
   7.420   1.2766   0.00910   0.00517  -0.0949  0.5513  0.7882
   7.430   1.2808   0.00904   0.00513  -0.0955  0.5549  0.7881
   7.440   1.2792   0.00910   0.00517  -0.0951  0.5532  0.7882
   7.450   1.2803   0.00910   0.00518  -0.0951  0.5536  0.7882
   7.460   1.2811   0.00911   0.00518  -0.0951  0.5534  0.7883
   7.470   1.2818   0.00911   0.00520  -0.0950  0.5522  0.7883
   7.480   1.2861   0.00906   0.00515  -0.0957  0.5552  0.7883
   7.490   1.2818   0.00916   0.00524  -0.0947  0.5497  0.7884
   7.500   1.2850   0.00913   0.00521  -0.0951  0.5538  0.7883
   7.510   1.2858   0.00913   0.00522  -0.0950  0.5527  0.7884
   7.520   1.2851   0.00917   0.00525  -0.0947  0.5502  0.7884
   7.530   1.2876   0.00914   0.00523  -0.0950  0.5528  0.7884
   7.540   1.2886   0.00915   0.00524  -0.0951  0.5531  0.7884
   7.550   1.2894   0.00916   0.00525  -0.0950  0.5526  0.7885
   7.560   1.2850   0.00927   0.00534  -0.0940  0.5472  0.7886
   7.570   1.2897   0.00919   0.00528  -0.0947  0.5500  0.7885
   7.580   1.2912   0.00919   0.00528  -0.0948  0.5507  0.7886
   7.590   1.2919   0.00920   0.00529  -0.0948  0.5504  0.7886
   7.600   1.2927   0.00921   0.00530  -0.0947  0.5502  0.7886
   7.610   1.2944   0.00920   0.00530  -0.0949  0.5512  0.7886
   7.620   1.2952   0.00921   0.00531  -0.0949  0.5509  0.7887
   7.630   1.2960   0.00921   0.00532  -0.0948  0.5507  0.7887
   7.640   1.2979   0.00920   0.00531  -0.0950  0.5523  0.7887
   7.650   1.2976   0.00923   0.00533  -0.0948  0.5505  0.7888
   7.660   1.2930   0.00935   0.00543  -0.0937  0.5466  0.7888
   7.670   1.2939   0.00936   0.00544  -0.0937  0.5466  0.7889
   7.680   1.3002   0.00925   0.00536  -0.0947  0.5502  0.7888
   7.690   1.3023   0.00923   0.00535  -0.0950  0.5519  0.7889
   7.700   1.2983   0.00934   0.00543  -0.0940  0.5474  0.7889
   7.710   1.2980   0.00937   0.00546  -0.0938  0.5468  0.7890
   7.720   1.3019   0.00931   0.00542  -0.0943  0.5485  0.7890
   7.730   1.3029   0.00932   0.00542  -0.0943  0.5485  0.7890
   7.740   1.3049   0.00930   0.00541  -0.0945  0.5494  0.7890
   7.750   1.3062   0.00930   0.00541  -0.0946  0.5497  0.7890
   7.760   1.3048   0.00935   0.00546  -0.0942  0.5480  0.7891
   7.770   1.3025   0.00943   0.00552  -0.0936  0.5463  0.7891
   7.780   1.2972   0.00957   0.00564  -0.0924  0.5396  0.7892
   7.790   1.3085   0.00935   0.00547  -0.0943  0.5486  0.7891
   7.800   1.3029   0.00950   0.00559  -0.0931  0.5440  0.7892
   7.810   1.3038   0.00951   0.00560  -0.0931  0.5437  0.7893
   7.820   1.3051   0.00950   0.00559  -0.0932  0.5447  0.7893
   7.830   1.3047   0.00954   0.00563  -0.0929  0.5424  0.7893
   7.840   1.3140   0.00936   0.00549  -0.0945  0.5493  0.7893
   7.850   1.3077   0.00952   0.00562  -0.0932  0.5446  0.7894
   7.860   1.3145   0.00940   0.00552  -0.0942  0.5483  0.7893
   7.870   1.3069   0.00959   0.00568  -0.0927  0.5408  0.7894
   7.880   1.3062   0.00964   0.00572  -0.0924  0.5395  0.7895
   7.890   1.3098   0.00958   0.00568  -0.0928  0.5420  0.7895
   7.900   1.3124   0.00955   0.00565  -0.0931  0.5448  0.7895
   7.910   1.3117   0.00959   0.00569  -0.0928  0.5418  0.7895
   7.920   1.3152   0.00954   0.00565  -0.0933  0.5459  0.7895
   7.930   1.3106   0.00967   0.00576  -0.0923  0.5393  0.7896
   7.940   1.3163   0.00957   0.00568  -0.0932  0.5451  0.7896
   7.950   1.3153   0.00962   0.00573  -0.0928  0.5418  0.7896
   7.960   1.3181   0.00958   0.00570  -0.0932  0.5454  0.7896
   7.970   1.3185   0.00960   0.00571  -0.0931  0.5439  0.7897
   7.980   1.3177   0.00965   0.00575  -0.0927  0.5413  0.7897
   7.990   1.3192   0.00964   0.00575  -0.0928  0.5420  0.7897
   8.000   1.3187   0.00968   0.00578  -0.0926  0.5405  0.7898
   8.010   1.3203   0.00967   0.00578  -0.0927  0.5411  0.7898
   8.020   1.3123   0.00989   0.00596  -0.0911  0.5336  0.7899
   8.030   1.3219   0.00969   0.00580  -0.0926  0.5409  0.7899
   8.040   1.3157   0.00986   0.00595  -0.0913  0.5356  0.7900
   8.050   1.3282   0.00960   0.00573  -0.0935  0.5463  0.7899
   8.060   1.3198   0.00982   0.00592  -0.0917  0.5380  0.7900
   8.070   1.3256   0.00971   0.00583  -0.0926  0.5410  0.7900
   8.080   1.3245   0.00976   0.00588  -0.0923  0.5395  0.7900
   8.090   1.3238   0.00981   0.00591  -0.0920  0.5386  0.7901
   8.100   1.3234   0.00985   0.00595  -0.0917  0.5380  0.7901
   8.110   1.3295   0.00973   0.00586  -0.0927  0.5412  0.7901
   8.120   1.3187   0.01002   0.00610  -0.0905  0.5314  0.7902
   8.130   1.3244   0.00991   0.00601  -0.0914  0.5372  0.7902
   8.140   1.3330   0.00973   0.00586  -0.0928  0.5420  0.7901
   8.150   1.3260   0.00993   0.00603  -0.0913  0.5363  0.7903
   8.160   1.3276   0.00992   0.00602  -0.0915  0.5375  0.7903
   8.170   1.3265   0.00997   0.00607  -0.0911  0.5345  0.7903
   8.180   1.3288   0.00995   0.00605  -0.0913  0.5366  0.7903
   8.190   1.3297   0.00995   0.00606  -0.0913  0.5369  0.7904
   8.200   1.3271   0.01005   0.00614  -0.0907  0.5322  0.7904
   8.210   1.3307   0.00999   0.00610  -0.0912  0.5351  0.7904
   8.220   1.3307   0.01002   0.00612  -0.0910  0.5339  0.7905
   8.230   1.3331   0.00998   0.00610  -0.0913  0.5363  0.7905
   8.240   1.3323   0.01003   0.00614  -0.0910  0.5338  0.7905
   8.250   1.3347   0.01000   0.00612  -0.0912  0.5360  0.7905
   8.260   1.3327   0.01008   0.00619  -0.0907  0.5323  0.7906
   8.270   1.3372   0.01000   0.00612  -0.0913  0.5373  0.7906
   8.280   1.3376   0.01002   0.00614  -0.0912  0.5363  0.7906
   8.290   1.3199   0.01052   0.00656  -0.0879  0.5198  0.7909
   8.300   1.3302   0.01027   0.00635  -0.0896  0.5277  0.7908
   8.310   1.3426   0.00998   0.00612  -0.0916  0.5381  0.7907
   8.320   1.3389   0.01010   0.00622  -0.0908  0.5331  0.7907
   8.330   1.3330   0.01029   0.00638  -0.0896  0.5277  0.7909
   8.340   1.3344   0.01028   0.00637  -0.0897  0.5287  0.7909
   8.350   1.3305   0.01042   0.00649  -0.0888  0.5235  0.7910
   8.360   1.3361   0.01030   0.00639  -0.0896  0.5289  0.7909
   8.370   1.3287   0.01053   0.00659  -0.0882  0.5214  0.7910
   8.380   1.3355   0.01038   0.00647  -0.0892  0.5256  0.7910
   8.390   1.3417   0.01024   0.00635  -0.0901  0.5304  0.7910
   8.400   1.3459   0.01016   0.00629  -0.0907  0.5328  0.7910
   8.410   1.3384   0.01039   0.00649  -0.0892  0.5259  0.7911
   8.420   1.3420   0.01033   0.00643  -0.0897  0.5292  0.7911
   8.430   1.3199   0.01099   0.00699  -0.0856  0.5089  0.7914
   8.440   1.3310   0.01070   0.00675  -0.0874  0.5173  0.7913
   8.450   1.3502   0.01020   0.00634  -0.0907  0.5326  0.7911
   8.460   1.3423   0.01045   0.00655  -0.0891  0.5253  0.7912
   8.470   1.3511   0.01024   0.00638  -0.0905  0.5318  0.7912
   8.480   1.3477   0.01036   0.00648  -0.0897  0.5293  0.7912
   8.490   1.3411   0.01057   0.00666  -0.0884  0.5223  0.7914
   8.500   1.3462   0.01046   0.00657  -0.0891  0.5257  0.7913
   8.510   1.3475   0.01046   0.00657  -0.0892  0.5261  0.7914
   8.520   1.3380   0.01076   0.00683  -0.0873  0.5172  0.7915
   8.530   1.3292   0.01105   0.00708  -0.0857  0.5093  0.7916
   8.540   1.3444   0.01064   0.00673  -0.0881  0.5216  0.7915
   8.550   1.2621   0.01333   0.00908  -0.0741  0.4595  0.7924
   8.560   1.3557   0.01039   0.00653  -0.0898  0.5298  0.7914
   8.570   1.3489   0.01061   0.00672  -0.0884  0.5228  0.7916
   8.580   1.3301   0.01120   0.00721  -0.0850  0.5067  0.7918
   8.590   1.3444   0.01081   0.00688  -0.0873  0.5172  0.7917
   8.600   1.3517   0.01063   0.00674  -0.0884  0.5229  0.7916
   8.610   1.3419   0.01095   0.00701  -0.0866  0.5140  0.7918
   8.620   1.3471   0.01083   0.00691  -0.0873  0.5173  0.7918
   8.630   1.3082   0.01207   0.00798  -0.0805  0.4872  0.7922
   8.640   1.3142   0.01191   0.00785  -0.0814  0.4905  0.7922
   8.650   1.2974   0.01250   0.00836  -0.0784  0.4779  0.7924
   8.660   1.3516   0.01083   0.00692  -0.0875  0.5184  0.7919
   8.670   1.3196   0.01184   0.00780  -0.0818  0.4926  0.7922
   8.680   1.3503   0.01094   0.00702  -0.0869  0.5156  0.7919
   8.690   1.3357   0.01141   0.00743  -0.0842  0.5040  0.7921
   8.700   1.3223   0.01187   0.00783  -0.0818  0.4927  0.7923
   8.710   1.3477   0.01112   0.00718  -0.0860  0.5124  0.7921
   8.720   1.3357   0.01152   0.00752  -0.0838  0.5015  0.7922
   8.730   1.3092   0.01241   0.00831  -0.0791  0.4813  0.7925
   8.740   1.3457   0.01128   0.00733  -0.0852  0.5079  0.7922
   8.750   1.3429   0.01140   0.00743  -0.0845  0.5054  0.7923
   8.760   1.3563   0.01103   0.00712  -0.0867  0.5150  0.7922
   8.770   1.3450   0.01141   0.00745  -0.0845  0.5055  0.7923
   8.780   1.3146   0.01242   0.00833  -0.0793  0.4820  0.7927
   8.790   1.2810   0.01363   0.00942  -0.0736  0.4595  0.7930
   8.800   1.3318   0.01193   0.00791  -0.0818  0.4936  0.7926
   8.810   1.3445   0.01156   0.00759  -0.0838  0.5024  0.7925
   8.820   1.3326   0.01198   0.00796  -0.0817  0.4929  0.7926
   8.830   1.3255   0.01225   0.00819  -0.0803  0.4873  0.7927
   8.840   1.3195   0.01249   0.00841  -0.0792  0.4820  0.7928
   8.850   1.3504   0.01152   0.00757  -0.0842  0.5047  0.7926
   8.860   1.3461   0.01169   0.00772  -0.0833  0.5001  0.7926
   8.870   1.3136   0.01281   0.00870  -0.0777  0.4766  0.7930
   8.880   1.3188   0.01266   0.00857  -0.0785  0.4799  0.7930
   8.890   1.3308   0.01230   0.00826  -0.0803  0.4874  0.7929
   8.900   1.2510   0.01525   0.01092  -0.0673  0.4356  0.7936
   8.910   1.3337   0.01228   0.00824  -0.0805  0.4884  0.7929
   8.920   1.3352   0.01227   0.00824  -0.0806  0.4888  0.7929
   8.930   1.3305   0.01246   0.00841  -0.0796  0.4844  0.7930
   8.940   1.2306   0.01627   0.01186  -0.0637  0.4214  0.7939
   8.950   1.2956   0.01377   0.00958  -0.0736  0.4606  0.7934
   8.960   1.3358   0.01240   0.00836  -0.0801  0.4867  0.7931
   8.970   1.3360   0.01243   0.00839  -0.0799  0.4861  0.7931
   8.980   1.3258   0.01282   0.00874  -0.0781  0.4790  0.7932
   8.990   1.3423   0.01230   0.00828  -0.0807  0.4894  0.7931
   9.000   1.2959   0.01397   0.00977  -0.0730  0.4582  0.7936
   9.010   1.3263   0.01292   0.00884  -0.0777  0.4774  0.7933
   9.020   1.2861   0.01442   0.01018  -0.0711  0.4511  0.7937
   9.030   1.3265   0.01299   0.00891  -0.0775  0.4763  0.7934
   9.040   1.3424   0.01248   0.00846  -0.0799  0.4866  0.7933
   9.050   1.3370   0.01271   0.00866  -0.0789  0.4822  0.7934
   9.060   1.1789   0.01921   0.01461  -0.0547  0.3843  0.7945
   9.070   1.3172   0.01348   0.00935  -0.0754  0.4679  0.7936
   9.080   1.2411   0.01650   0.01211  -0.0634  0.4212  0.7942
   9.090   1.3121   0.01375   0.00960  -0.0743  0.4640  0.7937
   9.100   1.3067   0.01399   0.00982  -0.0732  0.4601  0.7938
   9.110   1.3082   0.01397   0.00981  -0.0733  0.4605  0.7938
   9.120   1.3098   0.01396   0.00980  -0.0734  0.4610  0.7938
   9.130   1.3242   0.01347   0.00936  -0.0756  0.4695  0.7937
   9.140   1.3148   0.01386   0.00972  -0.0740  0.4634  0.7938
   9.150   1.3254   0.01351   0.00941  -0.0755  0.4692  0.7938
   9.160   1.3148   0.01394   0.00979  -0.0737  0.4623  0.7939
   9.170   1.3340   0.01329   0.00921  -0.0766  0.4734  0.7938
   9.180   1.3165   0.01396   0.00982  -0.0736  0.4624  0.7939
   9.190   1.3006   0.01461   0.01040  -0.0710  0.4520  0.7941
   9.200   1.3334   0.01343   0.00935  -0.0761  0.4719  0.7939
   9.210   1.3260   0.01374   0.00963  -0.0747  0.4665  0.7940
   9.220   1.3381   0.01334   0.00927  -0.0765  0.4735  0.7939
   9.230   1.2579   0.01652   0.01216  -0.0639  0.4245  0.7945
   9.240   1.3291   0.01375   0.00964  -0.0748  0.4671  0.7940
   9.250   1.3136   0.01437   0.01020  -0.0722  0.4568  0.7942
   9.260   1.2747   0.01595   0.01166  -0.0660  0.4335  0.7945
   9.270   1.2962   0.01513   0.01090  -0.0692  0.4459  0.7943
   9.280   1.2733   0.01611   0.01180  -0.0656  0.4317  0.7945
   9.290   1.2811   0.01584   0.01156  -0.0666  0.4362  0.7945
   9.300   1.2827   0.01582   0.01154  -0.0667  0.4367  0.7945
   9.310   1.3431   0.01353   0.00947  -0.0761  0.4724  0.7941
   9.320   1.2914   0.01556   0.01131  -0.0678  0.4404  0.7945
   9.330   1.2735   0.01634   0.01203  -0.0649  0.4295  0.7946
   9.340   1.2828   0.01600   0.01172  -0.0662  0.4348  0.7946
   9.350   1.2770   0.01629   0.01199  -0.0652  0.4306  0.7947
   9.360   1.2729   0.01651   0.01219  -0.0644  0.4280  0.7947
   9.370   1.2662   0.01685   0.01251  -0.0633  0.4235  0.7948
   9.380   1.2832   0.01617   0.01189  -0.0657  0.4330  0.7947
   9.390   1.2478   0.01776   0.01336  -0.0603  0.4118  0.7949
   9.400   1.2424   0.01806   0.01364  -0.0594  0.4085  0.7950
   9.410   1.2633   0.01717   0.01282  -0.0623  0.4205  0.7949
   9.420   1.3078   0.01535   0.01115  -0.0689  0.4457  0.7947
   9.430   1.2519   0.01778   0.01339  -0.0604  0.4124  0.7950
   9.440   1.3223   0.01487   0.01071  -0.0709  0.4537  0.7946
