  
       XFOIL         Version 6.94
  
 Calculated polar for: 1080                                            
  
 1 1 Reynolds number fixed          Mach number fixed         
  
 xtrf =   1.000 (top)        1.000 (bottom)  
 Mach =   0.000     Re =     2.000 e 6     Ncrit =   9.000
  
  alpha     CL        CD       CDp       CM    Top_Xtr Bot_Xtr
 ------- -------- --------- --------- -------- ------- -------
   6.000   1.1591   0.00734   0.00330  -0.0932  0.5348  0.7761
   6.010   1.1601   0.00735   0.00331  -0.0932  0.5347  0.7761
   6.020   1.1611   0.00735   0.00331  -0.0932  0.5347  0.7761
   6.030   1.1621   0.00736   0.00331  -0.0932  0.5345  0.7762
   6.040   1.1632   0.00736   0.00332  -0.0932  0.5344  0.7762
   6.050   1.1642   0.00736   0.00332  -0.0932  0.5344  0.7762
   6.060   1.1652   0.00736   0.00332  -0.0932  0.5344  0.7763
   6.070   1.1658   0.00736   0.00332  -0.0931  0.5342  0.7763
   6.080   1.1669   0.00736   0.00332  -0.0931  0.5342  0.7763
   6.090   1.1677   0.00736   0.00332  -0.0931  0.5341  0.7764
   6.100   1.1686   0.00736   0.00332  -0.0930  0.5341  0.7764
   6.110   1.1696   0.00736   0.00333  -0.0930  0.5341  0.7764
   6.120   1.1705   0.00736   0.00333  -0.0930  0.5340  0.7764
   6.130   1.1715   0.00736   0.00333  -0.0930  0.5340  0.7765
   6.140   1.1724   0.00736   0.00333  -0.0930  0.5339  0.7765
   6.150   1.1732   0.00735   0.00333  -0.0929  0.5338  0.7765
   6.160   1.1740   0.00735   0.00333  -0.0929  0.5337  0.7766
   6.170   1.1750   0.00735   0.00333  -0.0929  0.5336  0.7766
   6.180   1.1760   0.00735   0.00334  -0.0928  0.5336  0.7766
   6.190   1.1769   0.00735   0.00334  -0.0928  0.5335  0.7767
   6.200   1.1779   0.00735   0.00334  -0.0928  0.5335  0.7767
   6.210   1.1788   0.00735   0.00334  -0.0928  0.5334  0.7767
   6.220   1.1797   0.00735   0.00334  -0.0927  0.5333  0.7768
   6.230   1.1805   0.00735   0.00334  -0.0927  0.5332  0.7768
   6.240   1.1816   0.00735   0.00335  -0.0927  0.5332  0.7768
   6.250   1.1825   0.00735   0.00335  -0.0927  0.5331  0.7769
   6.260   1.1834   0.00735   0.00335  -0.0927  0.5330  0.7769
   6.270   1.1842   0.00735   0.00335  -0.0926  0.5329  0.7769
   6.280   1.1853   0.00735   0.00335  -0.0926  0.5329  0.7770
   6.290   1.1862   0.00735   0.00335  -0.0926  0.5328  0.7770
   6.300   1.1871   0.00735   0.00335  -0.0926  0.5327  0.7770
   6.310   1.1881   0.00735   0.00335  -0.0925  0.5326  0.7771
   6.320   1.1889   0.00735   0.00336  -0.0925  0.5325  0.7771
   6.330   1.1900   0.00735   0.00336  -0.0925  0.5325  0.7771
   6.340   1.1910   0.00735   0.00336  -0.0925  0.5324  0.7771
   6.350   1.1920   0.00735   0.00336  -0.0925  0.5324  0.7772
   6.360   1.1929   0.00735   0.00336  -0.0925  0.5323  0.7772
   6.370   1.1938   0.00735   0.00337  -0.0924  0.5322  0.7773
   6.380   1.1948   0.00735   0.00337  -0.0924  0.5321  0.7773
   6.390   1.1956   0.00735   0.00337  -0.0924  0.5319  0.7773
   6.400   1.1967   0.00735   0.00337  -0.0924  0.5319  0.7773
   6.410   1.1975   0.00735   0.00337  -0.0923  0.5317  0.7774
   6.420   1.1985   0.00735   0.00337  -0.0923  0.5317  0.7774
   6.430   1.1996   0.00736   0.00338  -0.0924  0.5317  0.7774
   6.440   1.2005   0.00735   0.00338  -0.0923  0.5316  0.7775
   6.450   1.2014   0.00735   0.00338  -0.0923  0.5315  0.7775
   6.460   1.2024   0.00736   0.00338  -0.0923  0.5314  0.7775
   6.470   1.2033   0.00735   0.00338  -0.0923  0.5313  0.7776
   6.480   1.2043   0.00736   0.00338  -0.0923  0.5312  0.7776
   6.490   1.2052   0.00736   0.00339  -0.0922  0.5311  0.7776
   6.500   1.2063   0.00736   0.00339  -0.0922  0.5311  0.7777
   6.510   1.2071   0.00736   0.00339  -0.0922  0.5309  0.7777
   6.520   1.2082   0.00736   0.00339  -0.0922  0.5309  0.7777
   6.530   1.2091   0.00736   0.00339  -0.0922  0.5308  0.7778
   6.540   1.2101   0.00736   0.00340  -0.0922  0.5307  0.7778
   6.550   1.2111   0.00736   0.00340  -0.0922  0.5307  0.7778
   6.560   1.2120   0.00736   0.00340  -0.0921  0.5306  0.7779
   6.570   1.2129   0.00736   0.00340  -0.0921  0.5304  0.7779
   6.580   1.2139   0.00737   0.00341  -0.0921  0.5303  0.7779
   6.590   1.2150   0.00737   0.00341  -0.0921  0.5303  0.7780
   6.600   1.2158   0.00737   0.00341  -0.0921  0.5301  0.7780
   6.610   1.2167   0.00737   0.00341  -0.0920  0.5300  0.7780
   6.620   1.2178   0.00737   0.00342  -0.0921  0.5300  0.7781
   6.630   1.2187   0.00737   0.00342  -0.0920  0.5299  0.7781
   6.640   1.2197   0.00737   0.00342  -0.0920  0.5299  0.7781
   6.650   1.2206   0.00737   0.00342  -0.0920  0.5297  0.7782
   6.660   1.2217   0.00738   0.00343  -0.0920  0.5297  0.7782
   6.670   1.2226   0.00738   0.00343  -0.0920  0.5296  0.7782
   6.680   1.2235   0.00738   0.00343  -0.0920  0.5295  0.7783
   6.690   1.2244   0.00738   0.00343  -0.0919  0.5293  0.7783
   6.700   1.2255   0.00738   0.00343  -0.0919  0.5293  0.7783
   6.710   1.2264   0.00738   0.00344  -0.0919  0.5292  0.7784
   6.720   1.2273   0.00738   0.00344  -0.0919  0.5291  0.7784
   6.730   1.2283   0.00738   0.00344  -0.0919  0.5290  0.7784
   6.740   1.2292   0.00739   0.00344  -0.0919  0.5289  0.7784
   6.750   1.2302   0.00739   0.00345  -0.0918  0.5288  0.7785
   6.760   1.2311   0.00739   0.00345  -0.0918  0.5288  0.7785
   6.770   1.2320   0.00739   0.00345  -0.0918  0.5287  0.7786
   6.780   1.2329   0.00739   0.00345  -0.0918  0.5285  0.7786
   6.790   1.2338   0.00739   0.00346  -0.0917  0.5285  0.7786
   6.800   1.2348   0.00740   0.00346  -0.0917  0.5284  0.7787
   6.810   1.2357   0.00740   0.00346  -0.0917  0.5283  0.7787
   6.820   1.2366   0.00740   0.00346  -0.0917  0.5282  0.7787
   6.830   1.2375   0.00740   0.00347  -0.0917  0.5281  0.7788
   6.840   1.2385   0.00741   0.00347  -0.0916  0.5280  0.7788
   6.850   1.2393   0.00741   0.00347  -0.0916  0.5279  0.7788
   6.860   1.2402   0.00741   0.00347  -0.0916  0.5278  0.7789
   6.870   1.2411   0.00741   0.00348  -0.0915  0.5277  0.7789
   6.880   1.2420   0.00741   0.00348  -0.0915  0.5276  0.7789
   6.890   1.2430   0.00742   0.00348  -0.0915  0.5275  0.7790
   6.900   1.2439   0.00742   0.00349  -0.0915  0.5274  0.7790
   6.910   1.2448   0.00742   0.00349  -0.0915  0.5274  0.7790
   6.920   1.2456   0.00743   0.00349  -0.0914  0.5272  0.7791
   6.930   1.2465   0.00743   0.00349  -0.0914  0.5271  0.7791
   6.940   1.2474   0.00743   0.00350  -0.0914  0.5270  0.7791
   6.950   1.2484   0.00743   0.00350  -0.0913  0.5270  0.7792
   6.960   1.2491   0.00744   0.00350  -0.0913  0.5268  0.7792
   6.970   1.2501   0.00744   0.00351  -0.0913  0.5268  0.7792
   6.980   1.2509   0.00744   0.00351  -0.0912  0.5266  0.7793
   6.990   1.2518   0.00745   0.00351  -0.0912  0.5266  0.7793
   7.000   1.2526   0.00745   0.00352  -0.0912  0.5264  0.7793
   7.010   1.2536   0.00745   0.00352  -0.0912  0.5264  0.7794
   7.020   1.2543   0.00746   0.00352  -0.0911  0.5262  0.7794
   7.030   1.2553   0.00746   0.00353  -0.0911  0.5262  0.7794
   7.040   1.2562   0.00746   0.00353  -0.0910  0.5261  0.7795
   7.050   1.2570   0.00747   0.00353  -0.0910  0.5260  0.7795
   7.060   1.2579   0.00747   0.00354  -0.0910  0.5259  0.7795
   7.070   1.2586   0.00747   0.00354  -0.0909  0.5257  0.7796
   7.080   1.2596   0.00748   0.00354  -0.0909  0.5257  0.7796
   7.090   1.2604   0.00748   0.00355  -0.0909  0.5255  0.7796
   7.100   1.2612   0.00749   0.00355  -0.0908  0.5254  0.7797
   7.110   1.2622   0.00749   0.00355  -0.0908  0.5254  0.7797
   7.120   1.2628   0.00750   0.00356  -0.0907  0.5252  0.7797
   7.130   1.2636   0.00750   0.00356  -0.0907  0.5250  0.7798
   7.140   1.2646   0.00750   0.00357  -0.0907  0.5250  0.7798
   7.150   1.2654   0.00751   0.00357  -0.0906  0.5249  0.7798
   7.160   1.2662   0.00751   0.00357  -0.0906  0.5247  0.7799
   7.170   1.2671   0.00752   0.00358  -0.0906  0.5247  0.7799
   7.180   1.2680   0.00752   0.00358  -0.0905  0.5245  0.7799
   7.190   1.2688   0.00753   0.00359  -0.0905  0.5244  0.7800
   7.200   1.2697   0.00753   0.00359  -0.0905  0.5243  0.7800
   7.210   1.2707   0.00754   0.00360  -0.0905  0.5242  0.7800
   7.220   1.2717   0.00754   0.00360  -0.0905  0.5241  0.7801
   7.230   1.2727   0.00754   0.00360  -0.0904  0.5241  0.7801
   7.240   1.2737   0.00754   0.00361  -0.0904  0.5240  0.7801
   7.250   1.2746   0.00754   0.00361  -0.0904  0.5239  0.7802
   7.260   1.2757   0.00754   0.00361  -0.0904  0.5239  0.7802
   7.270   1.2766   0.00754   0.00361  -0.0904  0.5236  0.7802
   7.280   1.2776   0.00755   0.00362  -0.0904  0.5237  0.7803
   7.290   1.2786   0.00755   0.00362  -0.0904  0.5236  0.7803
   7.300   1.2796   0.00755   0.00363  -0.0904  0.5234  0.7803
   7.310   1.2806   0.00755   0.00363  -0.0904  0.5233  0.7804
   7.320   1.2816   0.00755   0.00363  -0.0904  0.5232  0.7804
   7.330   1.2826   0.00755   0.00364  -0.0904  0.5231  0.7804
   7.340   1.2836   0.00755   0.00364  -0.0904  0.5231  0.7805
   7.350   1.2846   0.00755   0.00364  -0.0904  0.5229  0.7805
   7.360   1.2855   0.00756   0.00365  -0.0904  0.5228  0.7805
   7.370   1.2865   0.00756   0.00365  -0.0904  0.5227  0.7806
   7.380   1.2875   0.00756   0.00365  -0.0903  0.5226  0.7806
   7.390   1.2885   0.00756   0.00366  -0.0903  0.5225  0.7806
   7.400   1.2895   0.00756   0.00366  -0.0903  0.5225  0.7807
   7.410   1.2905   0.00757   0.00366  -0.0903  0.5223  0.7807
   7.420   1.2915   0.00757   0.00367  -0.0903  0.5221  0.7807
   7.430   1.2925   0.00757   0.00367  -0.0903  0.5221  0.7807
   7.440   1.2935   0.00757   0.00367  -0.0903  0.5219  0.7808
   7.450   1.2944   0.00757   0.00368  -0.0903  0.5217  0.7808
   7.460   1.2955   0.00757   0.00368  -0.0903  0.5217  0.7808
   7.470   1.2964   0.00758   0.00368  -0.0903  0.5216  0.7809
   7.480   1.2974   0.00758   0.00369  -0.0903  0.5214  0.7809
   7.490   1.2984   0.00758   0.00369  -0.0903  0.5213  0.7810
   7.500   1.2994   0.00758   0.00369  -0.0903  0.5212  0.7810
   7.510   1.3003   0.00759   0.00370  -0.0902  0.5212  0.7810
   7.520   1.3013   0.00759   0.00370  -0.0902  0.5210  0.7810
   7.530   1.3023   0.00759   0.00370  -0.0902  0.5208  0.7811
   7.540   1.3032   0.00759   0.00371  -0.0902  0.5207  0.7811
   7.550   1.3042   0.00759   0.00371  -0.0902  0.5205  0.7811
   7.560   1.3053   0.00760   0.00371  -0.0902  0.5206  0.7812
   7.570   1.3061   0.00760   0.00372  -0.0902  0.5203  0.7812
   7.580   1.3071   0.00760   0.00372  -0.0902  0.5201  0.7812
   7.590   1.3081   0.00760   0.00372  -0.0902  0.5201  0.7813
   7.600   1.3091   0.00760   0.00373  -0.0902  0.5200  0.7813
   7.610   1.3100   0.00761   0.00373  -0.0901  0.5197  0.7814
   7.620   1.3110   0.00761   0.00373  -0.0901  0.5198  0.7814
   7.630   1.3119   0.00761   0.00374  -0.0901  0.5195  0.7814
   7.640   1.3128   0.00762   0.00374  -0.0901  0.5195  0.7814
   7.650   1.3138   0.00762   0.00374  -0.0901  0.5193  0.7815
   7.660   1.3147   0.00762   0.00375  -0.0901  0.5192  0.7815
   7.670   1.3157   0.00762   0.00375  -0.0900  0.5191  0.7815
   7.680   1.3165   0.00763   0.00375  -0.0900  0.5189  0.7816
   7.690   1.3173   0.00763   0.00376  -0.0900  0.5187  0.7816
   7.700   1.3183   0.00763   0.00376  -0.0900  0.5187  0.7816
   7.710   1.3192   0.00764   0.00377  -0.0899  0.5185  0.7817
   7.720   1.3200   0.00764   0.00377  -0.0899  0.5183  0.7817
   7.730   1.3210   0.00764   0.00377  -0.0899  0.5183  0.7818
   7.740   1.3218   0.00765   0.00378  -0.0898  0.5181  0.7818
   7.750   1.3227   0.00765   0.00378  -0.0898  0.5180  0.7818
   7.760   1.3236   0.00765   0.00378  -0.0898  0.5179  0.7819
   7.770   1.3243   0.00766   0.00379  -0.0897  0.5176  0.7819
   7.780   1.3253   0.00766   0.00379  -0.0897  0.5176  0.7819
   7.790   1.3262   0.00766   0.00380  -0.0897  0.5175  0.7820
   7.800   1.3270   0.00767   0.00380  -0.0897  0.5174  0.7820
   7.810   1.3279   0.00767   0.00380  -0.0896  0.5172  0.7820
   7.820   1.3286   0.00768   0.00381  -0.0896  0.5170  0.7821
   7.830   1.3295   0.00768   0.00381  -0.0895  0.5170  0.7821
   7.840   1.3304   0.00768   0.00382  -0.0895  0.5169  0.7821
   7.850   1.3310   0.00769   0.00382  -0.0894  0.5166  0.7822
   7.860   1.3318   0.00769   0.00382  -0.0894  0.5165  0.7822
   7.870   1.3327   0.00770   0.00383  -0.0894  0.5164  0.7823
   7.880   1.3335   0.00770   0.00383  -0.0893  0.5163  0.7823
   7.890   1.3343   0.00771   0.00384  -0.0893  0.5161  0.7823
   7.900   1.3349   0.00771   0.00384  -0.0892  0.5159  0.7824
   7.910   1.3359   0.00772   0.00385  -0.0892  0.5159  0.7824
   7.920   1.3366   0.00772   0.00385  -0.0891  0.5158  0.7824
   7.930   1.3372   0.00773   0.00386  -0.0891  0.5155  0.7825
   7.940   1.3379   0.00774   0.00386  -0.0890  0.5153  0.7825
   7.950   1.3390   0.00774   0.00387  -0.0890  0.5154  0.7825
   7.960   1.3396   0.00774   0.00387  -0.0889  0.5152  0.7826
   7.970   1.3402   0.00775   0.00388  -0.0888  0.5150  0.7826
   7.980   1.3412   0.00776   0.00388  -0.0888  0.5150  0.7826
   7.990   1.3416   0.00776   0.00389  -0.0887  0.5147  0.7827
   8.000   1.3425   0.00777   0.00389  -0.0887  0.5146  0.7827
   8.010   1.3430   0.00778   0.00390  -0.0886  0.5144  0.7828
   8.020   1.3440   0.00778   0.00391  -0.0886  0.5143  0.7828
   8.030   1.3450   0.00778   0.00391  -0.0886  0.5143  0.7828
   8.040   1.3460   0.00779   0.00391  -0.0886  0.5140  0.7829
   8.050   1.3470   0.00779   0.00392  -0.0886  0.5140  0.7829
   8.060   1.3480   0.00779   0.00392  -0.0886  0.5138  0.7829
   8.070   1.3490   0.00779   0.00393  -0.0886  0.5138  0.7830
   8.080   1.3500   0.00779   0.00393  -0.0886  0.5135  0.7830
   8.090   1.3510   0.00780   0.00393  -0.0886  0.5135  0.7830
   8.100   1.3521   0.00780   0.00394  -0.0886  0.5131  0.7831
   8.110   1.3531   0.00780   0.00394  -0.0886  0.5130  0.7831
   8.120   1.3541   0.00780   0.00394  -0.0886  0.5130  0.7831
   8.130   1.3551   0.00781   0.00395  -0.0886  0.5128  0.7832
   8.140   1.3560   0.00781   0.00395  -0.0886  0.5128  0.7832
   8.150   1.3570   0.00781   0.00396  -0.0886  0.5126  0.7832
   8.160   1.3580   0.00781   0.00396  -0.0886  0.5123  0.7833
   8.170   1.3590   0.00782   0.00397  -0.0885  0.5124  0.7833
   8.180   1.3599   0.00782   0.00397  -0.0885  0.5118  0.7833
   8.190   1.3609   0.00782   0.00397  -0.0885  0.5118  0.7834
   8.200   1.3619   0.00782   0.00398  -0.0885  0.5116  0.7834
   8.210   1.3628   0.00783   0.00398  -0.0885  0.5114  0.7834
   8.220   1.3637   0.00783   0.00399  -0.0885  0.5113  0.7834
   8.230   1.3647   0.00783   0.00399  -0.0885  0.5113  0.7835
   8.240   1.3656   0.00784   0.00400  -0.0885  0.5111  0.7835
   8.250   1.3665   0.00784   0.00400  -0.0884  0.5108  0.7835
   8.260   1.3674   0.00784   0.00400  -0.0884  0.5106  0.7836
   8.270   1.3683   0.00785   0.00401  -0.0884  0.5104  0.7836
   8.280   1.3691   0.00785   0.00401  -0.0884  0.5101  0.7837
   8.290   1.3701   0.00786   0.00402  -0.0883  0.5101  0.7837
   8.300   1.3710   0.00786   0.00402  -0.0883  0.5099  0.7837
   8.310   1.3718   0.00786   0.00403  -0.0883  0.5095  0.7837
   8.320   1.3727   0.00787   0.00403  -0.0883  0.5095  0.7838
   8.330   1.3735   0.00787   0.00403  -0.0882  0.5092  0.7838
   8.340   1.3745   0.00788   0.00404  -0.0882  0.5091  0.7838
   8.350   1.3753   0.00788   0.00404  -0.0882  0.5089  0.7839
   8.360   1.3761   0.00789   0.00405  -0.0881  0.5087  0.7839
   8.370   1.3770   0.00789   0.00405  -0.0881  0.5085  0.7839
   8.380   1.3776   0.00790   0.00406  -0.0880  0.5081  0.7840
   8.390   1.3787   0.00790   0.00406  -0.0880  0.5082  0.7840
   8.400   1.3793   0.00791   0.00407  -0.0880  0.5078  0.7841
   8.410   1.3801   0.00791   0.00407  -0.0879  0.5076  0.7841
   8.420   1.3811   0.00791   0.00408  -0.0879  0.5076  0.7841
   8.430   1.3817   0.00792   0.00408  -0.0879  0.5073  0.7841
   8.440   1.3825   0.00793   0.00409  -0.0878  0.5071  0.7842
   8.450   1.3830   0.00794   0.00410  -0.0877  0.5067  0.7842
   8.460   1.3837   0.00794   0.00410  -0.0876  0.5065  0.7843
   8.470   1.3847   0.00795   0.00411  -0.0877  0.5065  0.7843
   8.480   1.3849   0.00796   0.00412  -0.0875  0.5059  0.7843
   8.490   1.3857   0.00796   0.00412  -0.0875  0.5059  0.7843
   8.500   1.3863   0.00797   0.00413  -0.0874  0.5056  0.7844
   8.510   1.3869   0.00798   0.00413  -0.0873  0.5054  0.7844
   8.520   1.3880   0.00798   0.00414  -0.0873  0.5055  0.7845
   8.530   1.3886   0.00799   0.00415  -0.0872  0.5053  0.7845
   8.540   1.3893   0.00800   0.00415  -0.0872  0.5051  0.7845
   8.550   1.3896   0.00801   0.00416  -0.0870  0.5048  0.7846
   8.560   1.3902   0.00802   0.00417  -0.0870  0.5046  0.7846
   8.570   1.3914   0.00802   0.00417  -0.0870  0.5047  0.7846
   8.580   1.3918   0.00803   0.00418  -0.0869  0.5041  0.7847
   8.590   1.3928   0.00803   0.00419  -0.0869  0.5041  0.7847
   8.600   1.3938   0.00803   0.00419  -0.0869  0.5037  0.7847
   8.610   1.3947   0.00804   0.00420  -0.0869  0.5036  0.7847
   8.620   1.3957   0.00804   0.00420  -0.0868  0.5035  0.7848
   8.630   1.3966   0.00804   0.00420  -0.0868  0.5032  0.7848
   8.640   1.3975   0.00805   0.00421  -0.0868  0.5030  0.7848
   8.650   1.3984   0.00805   0.00422  -0.0868  0.5027  0.7849
   8.660   1.3994   0.00806   0.00422  -0.0868  0.5026  0.7849
   8.670   1.4003   0.00806   0.00423  -0.0868  0.5024  0.7849
   8.680   1.4011   0.00807   0.00423  -0.0867  0.5021  0.7849
   8.690   1.4020   0.00807   0.00424  -0.0867  0.5018  0.7850
   8.700   1.4029   0.00807   0.00424  -0.0867  0.5017  0.7850
   8.710   1.4037   0.00808   0.00425  -0.0867  0.5014  0.7850
   8.720   1.4045   0.00809   0.00425  -0.0866  0.5009  0.7850
   8.730   1.4055   0.00809   0.00426  -0.0866  0.5010  0.7851
   8.740   1.4062   0.00810   0.00426  -0.0866  0.5005  0.7851
   8.750   1.4070   0.00810   0.00427  -0.0865  0.5003  0.7851
   8.760   1.4078   0.00811   0.00428  -0.0865  0.5001  0.7852
   8.770   1.4085   0.00811   0.00428  -0.0864  0.4998  0.7852
   8.780   1.4093   0.00812   0.00429  -0.0864  0.4995  0.7852
   8.790   1.4100   0.00813   0.00430  -0.0863  0.4990  0.7852
   8.800   1.4109   0.00813   0.00430  -0.0863  0.4990  0.7853
   8.810   1.4115   0.00814   0.00431  -0.0862  0.4986  0.7853
