  
       XFOIL         Version 6.94
  
 Calculated polar for: 1080                                            
  
 1 1 Reynolds number fixed          Mach number fixed         
  
 xtrf =   1.000 (top)        1.000 (bottom)  
 Mach =   0.000     Re =     2.000 e 6     Ncrit =   9.000
  
  alpha     CL        CD       CDp       CM    Top_Xtr Bot_Xtr
 ------- -------- --------- --------- -------- ------- -------
   6.000   0.9830   0.00758   0.00372  -0.0639  0.5902  0.7796
   6.010   0.9838   0.00759   0.00373  -0.0639  0.5901  0.7796
   6.020   0.9844   0.00759   0.00373  -0.0638  0.5898  0.7796
   6.030   0.9854   0.00759   0.00374  -0.0638  0.5899  0.7797
   6.040   0.9862   0.00760   0.00374  -0.0638  0.5898  0.7797
   6.050   0.9872   0.00760   0.00375  -0.0638  0.5897  0.7797
   6.060   0.9878   0.00761   0.00375  -0.0637  0.5895  0.7798
   6.070   0.9883   0.00761   0.00376  -0.0636  0.5893  0.7798
   6.080   0.9897   0.00761   0.00376  -0.0637  0.5894  0.7798
   6.090   0.9907   0.00762   0.00377  -0.0637  0.5895  0.7799
   6.100   0.9913   0.00762   0.00377  -0.0636  0.5893  0.7799
   6.110   0.9920   0.00763   0.00378  -0.0636  0.5891  0.7800
   6.120   0.9925   0.00763   0.00378  -0.0635  0.5889  0.7800
   6.130   0.9935   0.00764   0.00379  -0.0635  0.5889  0.7800
   6.140   0.9948   0.00764   0.00379  -0.0635  0.5890  0.7800
   6.150   0.9954   0.00764   0.00380  -0.0635  0.5888  0.7801
   6.160   0.9964   0.00765   0.00380  -0.0635  0.5888  0.7801
   6.170   0.9970   0.00765   0.00381  -0.0634  0.5886  0.7801
   6.180   0.9976   0.00766   0.00381  -0.0633  0.5884  0.7801
   6.190   0.9985   0.00766   0.00382  -0.0633  0.5884  0.7802
   6.200   0.9987   0.00768   0.00383  -0.0631  0.5880  0.7802
   6.210   1.0002   0.00767   0.00383  -0.0632  0.5882  0.7802
   6.220   1.0009   0.00768   0.00383  -0.0632  0.5881  0.7803
   6.230   1.0020   0.00768   0.00384  -0.0632  0.5881  0.7803
   6.240   1.0029   0.00769   0.00384  -0.0632  0.5881  0.7803
   6.250   1.0033   0.00770   0.00385  -0.0631  0.5878  0.7804
   6.260   1.0041   0.00770   0.00386  -0.0630  0.5877  0.7804
   6.270   1.0049   0.00771   0.00386  -0.0630  0.5876  0.7804
   6.280   1.0056   0.00771   0.00387  -0.0629  0.5874  0.7805
   6.290   1.0065   0.00772   0.00387  -0.0629  0.5874  0.7805
   6.300   1.0074   0.00772   0.00388  -0.0629  0.5874  0.7805
   6.310   1.0082   0.00773   0.00388  -0.0629  0.5872  0.7806
   6.320   1.0088   0.00774   0.00389  -0.0628  0.5871  0.7806
   6.330   1.0097   0.00774   0.00390  -0.0628  0.5871  0.7806
   6.340   1.0103   0.00775   0.00390  -0.0627  0.5868  0.7806
   6.350   1.0115   0.00775   0.00391  -0.0627  0.5869  0.7807
   6.360   1.0121   0.00776   0.00391  -0.0627  0.5868  0.7807
   6.370   1.0119   0.00778   0.00393  -0.0624  0.5862  0.7807
   6.380   1.0139   0.00777   0.00392  -0.0626  0.5866  0.7807
   6.390   1.0150   0.00777   0.00393  -0.0627  0.5867  0.7808
   6.400   1.0152   0.00778   0.00394  -0.0625  0.5863  0.7808
   6.410   1.0160   0.00779   0.00394  -0.0625  0.5862  0.7808
   6.420   1.0168   0.00779   0.00395  -0.0624  0.5861  0.7809
   6.430   1.0170   0.00781   0.00396  -0.0623  0.5857  0.7809
   6.440   1.0181   0.00781   0.00396  -0.0623  0.5857  0.7809
   6.450   1.0194   0.00781   0.00397  -0.0624  0.5859  0.7809
   6.460   1.0204   0.00781   0.00397  -0.0624  0.5859  0.7810
   6.470   1.0210   0.00782   0.00398  -0.0623  0.5857  0.7810
   6.480   1.0214   0.00784   0.00399  -0.0622  0.5854  0.7810
   6.490   1.0226   0.00784   0.00399  -0.0622  0.5855  0.7811
   6.500   1.0231   0.00785   0.00400  -0.0621  0.5852  0.7811
   6.510   1.0238   0.00785   0.00401  -0.0621  0.5850  0.7811
   6.520   1.0249   0.00786   0.00401  -0.0621  0.5850  0.7811
   6.530   1.0253   0.00786   0.00402  -0.0620  0.5847  0.7812
   6.540   1.0262   0.00787   0.00403  -0.0620  0.5847  0.7812
   6.550   1.0275   0.00787   0.00403  -0.0620  0.5848  0.7812
   6.560   1.0285   0.00787   0.00403  -0.0620  0.5849  0.7812
   6.570   1.0287   0.00788   0.00405  -0.0619  0.5844  0.7813
   6.580   1.0300   0.00788   0.00405  -0.0620  0.5846  0.7813
   6.590   1.0311   0.00789   0.00405  -0.0620  0.5846  0.7813
   6.600   1.0315   0.00789   0.00406  -0.0619  0.5843  0.7814
   6.610   1.0325   0.00790   0.00407  -0.0619  0.5843  0.7814
   6.620   1.0332   0.00790   0.00408  -0.0618  0.5841  0.7814
   6.630   1.0341   0.00791   0.00408  -0.0618  0.5840  0.7814
   6.640   1.0350   0.00791   0.00409  -0.0618  0.5839  0.7815
   6.650   1.0359   0.00792   0.00409  -0.0618  0.5839  0.7815
   6.660   1.0361   0.00793   0.00411  -0.0616  0.5833  0.7815
   6.670   1.0373   0.00793   0.00411  -0.0617  0.5835  0.7815
   6.680   1.0380   0.00793   0.00412  -0.0616  0.5832  0.7816
   6.690   1.0394   0.00793   0.00412  -0.0617  0.5835  0.7816
   6.700   1.0393   0.00795   0.00413  -0.0615  0.5828  0.7816
   6.710   1.0411   0.00794   0.00413  -0.0616  0.5833  0.7816
   6.720   1.0417   0.00795   0.00414  -0.0615  0.5830  0.7817
   6.730   1.0429   0.00795   0.00414  -0.0616  0.5832  0.7817
   6.740   1.0435   0.00796   0.00415  -0.0615  0.5829  0.7817
   6.750   1.0444   0.00796   0.00416  -0.0615  0.5828  0.7817
   6.760   1.0453   0.00797   0.00416  -0.0615  0.5828  0.7818
   6.770   1.0461   0.00797   0.00417  -0.0614  0.5826  0.7818
   6.780   1.0464   0.00798   0.00418  -0.0613  0.5821  0.7818
   6.790   1.0478   0.00798   0.00418  -0.0614  0.5824  0.7819
   6.800   1.0485   0.00799   0.00419  -0.0614  0.5822  0.7819
   6.810   1.0495   0.00799   0.00419  -0.0614  0.5822  0.7819
   6.820   1.0506   0.00800   0.00420  -0.0614  0.5822  0.7819
   6.830   1.0507   0.00801   0.00421  -0.0612  0.5815  0.7820
   6.840   1.0518   0.00801   0.00422  -0.0612  0.5816  0.7820
   6.850   1.0528   0.00801   0.00422  -0.0612  0.5816  0.7820
   6.860   1.0530   0.00803   0.00423  -0.0611  0.5809  0.7821
   6.870   1.0546   0.00802   0.00423  -0.0612  0.5814  0.7821
   6.880   1.0549   0.00803   0.00424  -0.0611  0.5809  0.7821
   6.890   1.0557   0.00804   0.00425  -0.0610  0.5808  0.7821
   6.900   1.0573   0.00804   0.00425  -0.0612  0.5812  0.7822
   6.910   1.0580   0.00804   0.00426  -0.0611  0.5810  0.7822
   6.920   1.0587   0.00805   0.00427  -0.0610  0.5808  0.7822
   6.930   1.0597   0.00806   0.00427  -0.0611  0.5808  0.7822
   6.940   1.0608   0.00806   0.00427  -0.0611  0.5809  0.7822
   6.950   1.0614   0.00807   0.00428  -0.0610  0.5806  0.7823
   6.960   1.0621   0.00807   0.00429  -0.0609  0.5804  0.7823
   6.970   1.0618   0.00809   0.00431  -0.0607  0.5797  0.7824
   6.980   1.0633   0.00809   0.00431  -0.0608  0.5800  0.7824
   6.990   1.0640   0.00810   0.00432  -0.0608  0.5798  0.7824
   7.000   1.0646   0.00811   0.00433  -0.0607  0.5795  0.7824
   7.010   1.0649   0.00812   0.00434  -0.0606  0.5792  0.7825
   7.020   1.0663   0.00812   0.00434  -0.0606  0.5794  0.7825
   7.030   1.0671   0.00812   0.00435  -0.0606  0.5794  0.7825
   7.040   1.0670   0.00814   0.00436  -0.0604  0.5787  0.7825
   7.050   1.0683   0.00814   0.00436  -0.0605  0.5789  0.7826
   7.060   1.0696   0.00814   0.00437  -0.0605  0.5791  0.7826
   7.070   1.0704   0.00815   0.00437  -0.0605  0.5790  0.7826
   7.080   1.0708   0.00816   0.00439  -0.0604  0.5787  0.7827
   7.090   1.0713   0.00817   0.00440  -0.0603  0.5785  0.7827
   7.100   1.0725   0.00817   0.00440  -0.0603  0.5786  0.7827
   7.110   1.0732   0.00818   0.00441  -0.0603  0.5784  0.7827
   7.120   1.0733   0.00820   0.00442  -0.0601  0.5780  0.7828
   7.130   1.0736   0.00821   0.00443  -0.0600  0.5777  0.7828
   7.140   1.0741   0.00822   0.00444  -0.0599  0.5775  0.7829
   7.150   1.0758   0.00822   0.00444  -0.0600  0.5778  0.7829
   7.160   1.0763   0.00823   0.00445  -0.0599  0.5776  0.7829
   7.170   1.0774   0.00823   0.00446  -0.0600  0.5777  0.7829
   7.180   1.0772   0.00825   0.00447  -0.0597  0.5771  0.7830
   7.190   1.0794   0.00824   0.00447  -0.0600  0.5777  0.7830
   7.200   1.0800   0.00825   0.00448  -0.0599  0.5775  0.7830
   7.210   1.0802   0.00826   0.00449  -0.0598  0.5771  0.7830
   7.220   1.0812   0.00827   0.00449  -0.0597  0.5771  0.7831
   7.230   1.0818   0.00828   0.00450  -0.0597  0.5770  0.7831
   7.240   1.0824   0.00829   0.00451  -0.0596  0.5768  0.7831
   7.250   1.0825   0.00831   0.00453  -0.0594  0.5764  0.7832
   7.260   1.0837   0.00831   0.00453  -0.0595  0.5765  0.7832
   7.270   1.0844   0.00831   0.00454  -0.0594  0.5764  0.7832
   7.280   1.0840   0.00834   0.00456  -0.0592  0.5758  0.7833
   7.290   1.0860   0.00833   0.00455  -0.0594  0.5762  0.7833
   7.300   1.0865   0.00834   0.00456  -0.0593  0.5761  0.7833
   7.310   1.0873   0.00835   0.00457  -0.0592  0.5760  0.7833
   7.320   1.0873   0.00837   0.00459  -0.0591  0.5756  0.7834
   7.330   1.0879   0.00838   0.00460  -0.0590  0.5754  0.7834
   7.340   1.0879   0.00840   0.00462  -0.0588  0.5749  0.7835
   7.350   1.0897   0.00839   0.00461  -0.0590  0.5754  0.7835
   7.370   1.0910   0.00841   0.00463  -0.0588  0.5750  0.7835
   7.380   1.0921   0.00841   0.00464  -0.0589  0.5751  0.7836
   7.390   1.0929   0.00842   0.00464  -0.0588  0.5749  0.7836
   7.400   1.0933   0.00843   0.00466  -0.0587  0.5743  0.7836
   7.410   1.0942   0.00843   0.00467  -0.0587  0.5743  0.7836
   7.420   1.0953   0.00844   0.00467  -0.0587  0.5743  0.7837
   7.430   1.0963   0.00844   0.00468  -0.0587  0.5744  0.7837
   7.440   1.0970   0.00845   0.00469  -0.0587  0.5742  0.7837
   7.450   1.0978   0.00846   0.00469  -0.0587  0.5740  0.7838
   7.460   1.0986   0.00846   0.00470  -0.0586  0.5738  0.7838
   7.470   1.0991   0.00847   0.00472  -0.0585  0.5732  0.7838
   7.480   1.0996   0.00848   0.00473  -0.0584  0.5726  0.7839
   7.490   1.1014   0.00848   0.00472  -0.0586  0.5736  0.7839
   7.500   1.1022   0.00848   0.00473  -0.0586  0.5734  0.7839
   7.510   1.1026   0.00850   0.00474  -0.0585  0.5728  0.7839
   7.520   1.1037   0.00850   0.00475  -0.0585  0.5730  0.7840
   7.530   1.1046   0.00850   0.00476  -0.0585  0.5728  0.7840
   7.540   1.1054   0.00851   0.00476  -0.0584  0.5727  0.7840
   7.550   1.1057   0.00852   0.00478  -0.0583  0.5720  0.7841
   7.560   1.1070   0.00852   0.00478  -0.0584  0.5724  0.7841
   7.570   1.1074   0.00854   0.00479  -0.0583  0.5718  0.7841
   7.580   1.1087   0.00854   0.00479  -0.0583  0.5721  0.7841
   7.590   1.1097   0.00854   0.00480  -0.0584  0.5722  0.7842
   7.600   1.1104   0.00855   0.00481  -0.0583  0.5719  0.7842
   7.610   1.1107   0.00856   0.00482  -0.0582  0.5713  0.7842
   7.620   1.1120   0.00856   0.00483  -0.0582  0.5716  0.7843
   7.630   1.1121   0.00858   0.00484  -0.0581  0.5708  0.7843
   7.640   1.1135   0.00858   0.00484  -0.0581  0.5712  0.7843
   7.650   1.1143   0.00858   0.00485  -0.0581  0.5711  0.7844
   7.660   1.1153   0.00859   0.00486  -0.0581  0.5712  0.7844
   7.670   1.1159   0.00860   0.00487  -0.0581  0.5708  0.7844
   7.680   1.1166   0.00861   0.00488  -0.0580  0.5706  0.7844
   7.690   1.1163   0.00863   0.00490  -0.0578  0.5697  0.7845
   7.700   1.1177   0.00863   0.00490  -0.0579  0.5700  0.7845
   7.710   1.1187   0.00863   0.00490  -0.0579  0.5700  0.7845
   7.720   1.1194   0.00865   0.00492  -0.0578  0.5698  0.7846
   7.730   1.1199   0.00866   0.00493  -0.0577  0.5695  0.7846
   7.740   1.1202   0.00867   0.00494  -0.0576  0.5691  0.7846
   7.750   1.1214   0.00867   0.00494  -0.0576  0.5692  0.7847
   7.760   1.1220   0.00868   0.00496  -0.0576  0.5690  0.7847
   7.770   1.1220   0.00871   0.00498  -0.0574  0.5684  0.7847
   7.780   1.1232   0.00871   0.00498  -0.0574  0.5686  0.7848
   7.790   1.1242   0.00871   0.00498  -0.0574  0.5686  0.7848
   7.800   1.1247   0.00872   0.00499  -0.0574  0.5684  0.7848
   7.810   1.1257   0.00873   0.00500  -0.0573  0.5684  0.7849
   7.820   1.1268   0.00873   0.00500  -0.0574  0.5684  0.7849
   7.830   1.1272   0.00874   0.00502  -0.0573  0.5682  0.7849
   7.840   1.1263   0.00878   0.00505  -0.0569  0.5673  0.7850
   7.850   1.1263   0.00881   0.00507  -0.0567  0.5669  0.7850
   7.860   1.1282   0.00879   0.00506  -0.0569  0.5673  0.7850
   7.870   1.1300   0.00878   0.00506  -0.0571  0.5677  0.7851
   7.880   1.1303   0.00880   0.00507  -0.0569  0.5674  0.7851
   7.890   1.1296   0.00883   0.00510  -0.0567  0.5667  0.7851
   7.900   1.1311   0.00883   0.00510  -0.0567  0.5669  0.7852
   7.910   1.1306   0.00886   0.00513  -0.0565  0.5663  0.7852
   7.920   1.1325   0.00885   0.00512  -0.0566  0.5667  0.7852
   7.930   1.1324   0.00887   0.00515  -0.0564  0.5663  0.7853
   7.940   1.1327   0.00889   0.00516  -0.0563  0.5660  0.7853
   7.950   1.1337   0.00889   0.00517  -0.0563  0.5661  0.7853
   7.960   1.1339   0.00891   0.00518  -0.0562  0.5658  0.7854
   7.970   1.1345   0.00893   0.00519  -0.0561  0.5657  0.7854
   7.980   1.1348   0.00894   0.00521  -0.0560  0.5654  0.7855
   7.990   1.1358   0.00895   0.00522  -0.0560  0.5654  0.7855
   8.000   1.1362   0.00897   0.00523  -0.0559  0.5652  0.7855
   8.010   1.1370   0.00897   0.00524  -0.0559  0.5651  0.7856
   8.020   1.1377   0.00898   0.00525  -0.0558  0.5643  0.7856
   8.030   1.1385   0.00899   0.00526  -0.0558  0.5643  0.7856
   8.040   1.1395   0.00899   0.00527  -0.0558  0.5642  0.7857
   8.050   1.1404   0.00900   0.00527  -0.0558  0.5644  0.7857
   8.060   1.1414   0.00900   0.00528  -0.0558  0.5642  0.7857
   8.070   1.1421   0.00901   0.00529  -0.0557  0.5637  0.7857
   8.080   1.1430   0.00902   0.00530  -0.0557  0.5637  0.7858
   8.090   1.1434   0.00903   0.00531  -0.0556  0.5628  0.7858
   8.100   1.1448   0.00903   0.00531  -0.0557  0.5635  0.7858
   8.110   1.1455   0.00904   0.00532  -0.0557  0.5632  0.7859
   8.120   1.1463   0.00905   0.00533  -0.0556  0.5629  0.7859
   8.130   1.1471   0.00906   0.00534  -0.0556  0.5626  0.7860
   8.140   1.1479   0.00906   0.00535  -0.0556  0.5626  0.7860
   8.150   1.1489   0.00906   0.00536  -0.0556  0.5627  0.7860
   8.160   1.1494   0.00908   0.00537  -0.0555  0.5621  0.7860
   8.170   1.1505   0.00908   0.00537  -0.0555  0.5623  0.7860
   8.180   1.1510   0.00910   0.00539  -0.0554  0.5617  0.7861
   8.190   1.1509   0.00912   0.00541  -0.0552  0.5608  0.7861
   8.200   1.1527   0.00911   0.00540  -0.0554  0.5617  0.7862
   8.210   1.1527   0.00913   0.00543  -0.0552  0.5608  0.7862
   8.220   1.1539   0.00913   0.00543  -0.0553  0.5610  0.7862
   8.230   1.1543   0.00915   0.00545  -0.0552  0.5606  0.7863
   8.240   1.1556   0.00915   0.00545  -0.0552  0.5609  0.7863
   8.250   1.1542   0.00920   0.00549  -0.0548  0.5592  0.7864
   8.260   1.1570   0.00917   0.00547  -0.0551  0.5605  0.7863
   8.270   1.1571   0.00919   0.00549  -0.0550  0.5599  0.7864
   8.280   1.1580   0.00920   0.00550  -0.0550  0.5598  0.7864
   8.290   1.1580   0.00922   0.00552  -0.0548  0.5592  0.7865
   8.300   1.1589   0.00923   0.00553  -0.0548  0.5592  0.7865
   8.310   1.1602   0.00923   0.00553  -0.0548  0.5594  0.7865
   8.320   1.1605   0.00924   0.00555  -0.0547  0.5591  0.7866
   8.330   1.1600   0.00928   0.00558  -0.0545  0.5582  0.7866
   8.340   1.1614   0.00928   0.00558  -0.0545  0.5585  0.7866
   8.350   1.1618   0.00929   0.00559  -0.0544  0.5582  0.7867
   8.360   1.1600   0.00936   0.00565  -0.0539  0.5568  0.7868
   8.370   1.1611   0.00936   0.00565  -0.0539  0.5569  0.7868
   8.380   1.1628   0.00935   0.00565  -0.0541  0.5572  0.7868
   8.390   1.1634   0.00936   0.00566  -0.0540  0.5571  0.7868
   8.400   1.1643   0.00937   0.00566  -0.0540  0.5571  0.7868
   8.410   1.1651   0.00938   0.00568  -0.0540  0.5570  0.7869
   8.420   1.1643   0.00942   0.00571  -0.0537  0.5562  0.7869
   8.430   1.1654   0.00942   0.00572  -0.0537  0.5563  0.7870
   8.440   1.1653   0.00945   0.00574  -0.0535  0.5559  0.7870
   8.450   1.1643   0.00950   0.00578  -0.0531  0.5544  0.7871
   8.460   1.1655   0.00950   0.00579  -0.0532  0.5550  0.7871
   8.470   1.1663   0.00951   0.00579  -0.0532  0.5549  0.7871
   8.480   1.1672   0.00951   0.00580  -0.0531  0.5550  0.7872
   8.490   1.1681   0.00952   0.00581  -0.0531  0.5547  0.7872
   8.500   1.1688   0.00953   0.00582  -0.0531  0.5542  0.7872
   8.510   1.1697   0.00954   0.00583  -0.0531  0.5541  0.7872
   8.520   1.1705   0.00954   0.00584  -0.0531  0.5539  0.7872
   8.530   1.1712   0.00955   0.00585  -0.0530  0.5536  0.7873
   8.540   1.1695   0.00962   0.00591  -0.0525  0.5506  0.7874
   8.550   1.1728   0.00957   0.00587  -0.0529  0.5532  0.7874
   8.560   1.1736   0.00958   0.00588  -0.0529  0.5530  0.7874
   8.570   1.1742   0.00959   0.00589  -0.0529  0.5527  0.7874
   8.580   1.1747   0.00961   0.00591  -0.0528  0.5523  0.7875
   8.590   1.1734   0.00967   0.00596  -0.0524  0.5501  0.7875
   8.600   1.1754   0.00965   0.00595  -0.0526  0.5511  0.7875
   8.610   1.1748   0.00969   0.00599  -0.0523  0.5498  0.7876
   8.620   1.1764   0.00968   0.00598  -0.0524  0.5504  0.7876
   8.630   1.1775   0.00968   0.00599  -0.0524  0.5505  0.7876
   8.640   1.1778   0.00970   0.00600  -0.0523  0.5501  0.7876
   8.650   1.1795   0.00969   0.00600  -0.0524  0.5507  0.7877
   8.660   1.1800   0.00970   0.00601  -0.0524  0.5504  0.7877
   8.670   1.1792   0.00975   0.00605  -0.0520  0.5491  0.7877
   8.680   1.1810   0.00974   0.00604  -0.0522  0.5498  0.7877
   8.690   1.1756   0.00989   0.00617  -0.0511  0.5462  0.7878
   8.700   1.1778   0.00987   0.00616  -0.0513  0.5468  0.7879
   8.710   1.1819   0.00980   0.00610  -0.0519  0.5485  0.7879
   8.720   1.1831   0.00980   0.00610  -0.0519  0.5487  0.7879
   8.730   1.1810   0.00988   0.00617  -0.0513  0.5470  0.7879
   8.740   1.1766   0.01001   0.00629  -0.0504  0.5428  0.7880
   8.750   1.1810   0.00993   0.00622  -0.0510  0.5462  0.7880
   8.760   1.1800   0.00999   0.00627  -0.0506  0.5453  0.7880
   8.770   1.1838   0.00992   0.00622  -0.0512  0.5466  0.7880
   8.780   1.1851   0.00992   0.00622  -0.0512  0.5468  0.7880
   8.790   1.1819   0.01002   0.00631  -0.0505  0.5440  0.7881
   8.800   1.1849   0.00998   0.00628  -0.0508  0.5458  0.7881
   8.810   1.1841   0.01003   0.00632  -0.0505  0.5446  0.7882
   8.820   1.1851   0.01003   0.00632  -0.0505  0.5448  0.7882
   8.830   1.1845   0.01008   0.00636  -0.0503  0.5427  0.7882
   8.840   1.1847   0.01010   0.00639  -0.0501  0.5417  0.7883
   8.850   1.1876   0.01006   0.00635  -0.0505  0.5444  0.7883
   8.860   1.1850   0.01015   0.00644  -0.0498  0.5404  0.7883
   8.870   1.1846   0.01019   0.00647  -0.0496  0.5395  0.7884
   8.880   1.1878   0.01014   0.00643  -0.0500  0.5413  0.7883
   8.890   1.1870   0.01019   0.00647  -0.0497  0.5399  0.7884
   8.900   1.1893   0.01016   0.00645  -0.0499  0.5410  0.7884
   8.910   1.1902   0.01017   0.00646  -0.0499  0.5410  0.7884
   8.920   1.1899   0.01020   0.00649  -0.0497  0.5401  0.7884
   8.930   1.1876   0.01029   0.00657  -0.0491  0.5379  0.7885
   8.940   1.1897   0.01027   0.00656  -0.0493  0.5387  0.7885
   8.950   1.1938   0.01020   0.00649  -0.0499  0.5411  0.7885
   8.960   1.1923   0.01026   0.00655  -0.0495  0.5392  0.7886
   8.970   1.1844   0.01050   0.00675  -0.0479  0.5333  0.7886
   8.980   1.1943   0.01027   0.00657  -0.0495  0.5393  0.7886
   8.990   1.1946   0.01029   0.00659  -0.0494  0.5390  0.7886
   9.000   1.1896   0.01045   0.00672  -0.0483  0.5358  0.7887
   9.010   1.1891   0.01050   0.00676  -0.0481  0.5348  0.7887
   9.020   1.1935   0.01041   0.00669  -0.0487  0.5368  0.7887
   9.030   1.1924   0.01047   0.00675  -0.0483  0.5359  0.7888
   9.040   1.1876   0.01063   0.00688  -0.0473  0.5301  0.7888
   9.050   1.1926   0.01053   0.00680  -0.0480  0.5348  0.7888
   9.060   1.1948   0.01050   0.00678  -0.0483  0.5358  0.7888
   9.090   1.1912   0.01068   0.00694  -0.0471  0.5295  0.7890
   9.100   1.1947   0.01062   0.00689  -0.0476  0.5317  0.7890
   9.110   1.1926   0.01071   0.00697  -0.0470  0.5292  0.7891
   9.120   1.1894   0.01082   0.00707  -0.0463  0.5268  0.7892
   9.130   1.1961   0.01067   0.00694  -0.0473  0.5306  0.7892
   9.140   1.1947   0.01074   0.00701  -0.0469  0.5289  0.7893
   9.150   1.1919   0.01084   0.00710  -0.0463  0.5268  0.7893
   9.160   1.1978   0.01072   0.00699  -0.0471  0.5298  0.7893
   9.170   1.1964   0.01078   0.00705  -0.0467  0.5283  0.7894
   9.180   1.1997   0.01073   0.00701  -0.0471  0.5300  0.7894
   9.190   1.2002   0.01074   0.00702  -0.0470  0.5297  0.7895
   9.200   1.1977   0.01084   0.00711  -0.0464  0.5275  0.7895
   9.210   1.1979   0.01086   0.00714  -0.0463  0.5272  0.7896
   9.220   1.1951   0.01097   0.00723  -0.0457  0.5255  0.7897
   9.230   1.1954   0.01100   0.00725  -0.0455  0.5250  0.7897
   9.240   1.1922   0.01111   0.00736  -0.0448  0.5208  0.7898
   9.250   1.1991   0.01096   0.00723  -0.0459  0.5261  0.7898
   9.260   1.1756   0.01166   0.00783  -0.0417  0.5075  0.7901
   9.270   1.1962   0.01110   0.00735  -0.0450  0.5221  0.7899
   9.280   1.1907   0.01128   0.00752  -0.0439  0.5171  0.7901
   9.290   1.1856   0.01146   0.00767  -0.0429  0.5131  0.7901
   9.300   1.1964   0.01119   0.00744  -0.0446  0.5199  0.7901
   9.310   1.1886   0.01144   0.00766  -0.0431  0.5143  0.7902
   9.320   1.1928   0.01135   0.00759  -0.0436  0.5164  0.7902
   9.330   1.1996   0.01119   0.00745  -0.0447  0.5204  0.7902
   9.340   1.1902   0.01149   0.00772  -0.0429  0.5133  0.7903
   9.350   1.1961   0.01136   0.00760  -0.0437  0.5168  0.7903
   9.360   1.1887   0.01160   0.00782  -0.0423  0.5107  0.7904
   9.370   1.1963   0.01142   0.00766  -0.0434  0.5161  0.7904
   9.380   1.1928   0.01155   0.00778  -0.0427  0.5127  0.7905
   9.390   1.1917   0.01161   0.00784  -0.0423  0.5111  0.7905
   9.400   1.1698   0.01231   0.00845  -0.0385  0.4954  0.7908
   9.410   1.1985   0.01148   0.00773  -0.0432  0.5156  0.7905
   9.420   1.1839   0.01195   0.00814  -0.0405  0.5038  0.7908
   9.430   1.1841   0.01197   0.00816  -0.0404  0.5033  0.7908
   9.440   1.1973   0.01162   0.00785  -0.0425  0.5122  0.7907
   9.450   1.1796   0.01218   0.00835  -0.0394  0.4985  0.7909
   9.460   1.1774   0.01228   0.00844  -0.0388  0.4967  0.7910
   9.470   1.1901   0.01193   0.00814  -0.0408  0.5057  0.7909
   9.480   1.1789   0.01231   0.00847  -0.0388  0.4967  0.7911
   9.490   1.1764   0.01242   0.00857  -0.0382  0.4947  0.7911
   9.500   1.1787   0.01239   0.00855  -0.0384  0.4958  0.7911
   9.510   1.1874   0.01215   0.00834  -0.0397  0.5004  0.7911
   9.520   1.1951   0.01195   0.00817  -0.0409  0.5060  0.7911
   9.530   1.1801   0.01245   0.00861  -0.0382  0.4950  0.7913
   9.540   1.1918   0.01212   0.00832  -0.0400  0.5019  0.7912
   9.550   1.1901   0.01221   0.00840  -0.0395  0.4999  0.7912
   9.560   1.1777   0.01263   0.00878  -0.0373  0.4909  0.7914
   9.570   1.1854   0.01243   0.00860  -0.0385  0.4962  0.7913
   9.580   1.1914   0.01227   0.00847  -0.0393  0.4992  0.7913
   9.590   1.1744   0.01285   0.00898  -0.0363  0.4868  0.7915
   9.600   1.1675   0.01311   0.00921  -0.0350  0.4816  0.7917
   9.610   1.1827   0.01266   0.00881  -0.0374  0.4915  0.7915
   9.620   1.1673   0.01319   0.00929  -0.0347  0.4803  0.7918
   9.630   1.1659   0.01328   0.00937  -0.0343  0.4788  0.7918
   9.640   1.1805   0.01284   0.00898  -0.0365  0.4879  0.7917
   9.650   1.1392   0.01427   0.01026  -0.0297  0.4603  0.7921
   9.660   1.1555   0.01374   0.00979  -0.0322  0.4701  0.7920
   9.670   1.1734   0.01318   0.00929  -0.0349  0.4818  0.7919
   9.680   1.1660   0.01346   0.00955  -0.0336  0.4765  0.7920
   9.690   1.1753   0.01319   0.00931  -0.0349  0.4820  0.7919
   9.700   1.1528   0.01399   0.01002  -0.0312  0.4665  0.7922
   9.710   1.1633   0.01367   0.00974  -0.0327  0.4729  0.7921
   9.720   1.1696   0.01350   0.00959  -0.0336  0.4766  0.7921
   9.730   1.1634   0.01374   0.00981  -0.0324  0.4717  0.7922
   9.740   1.1580   0.01397   0.01002  -0.0314  0.4677  0.7923
   9.750   1.1500   0.01429   0.01031  -0.0300  0.4622  0.7924
   9.760   1.1670   0.01374   0.00981  -0.0325  0.4725  0.7923
   9.770   1.1592   0.01405   0.01010  -0.0311  0.4670  0.7924
   9.780   1.1540   0.01427   0.01030  -0.0302  0.4634  0.7925
   9.790   1.1664   0.01387   0.00995  -0.0320  0.4704  0.7924
   9.800   1.1557   0.01429   0.01032  -0.0302  0.4636  0.7925
   9.810   1.1547   0.01436   0.01039  -0.0299  0.4623  0.7926
   9.820   1.1345   0.01514   0.01109  -0.0265  0.4485  0.7928
   9.830   1.1618   0.01419   0.01025  -0.0307  0.4660  0.7926
   9.840   1.1336   0.01526   0.01120  -0.0261  0.4471  0.7929
   9.850   1.1520   0.01462   0.01064  -0.0288  0.4580  0.7928
   9.860   1.1406   0.01508   0.01105  -0.0269  0.4504  0.7929
   9.870   1.1565   0.01454   0.01057  -0.0293  0.4600  0.7928
   9.880   1.1412   0.01514   0.01111  -0.0267  0.4498  0.7930
   9.890   1.1375   0.01533   0.01128  -0.0260  0.4471  0.7931
   9.900   1.1381   0.01535   0.01130  -0.0259  0.4470  0.7931
   9.910   1.1424   0.01523   0.01120  -0.0265  0.4491  0.7931
   9.920   1.1249   0.01593   0.01183  -0.0236  0.4372  0.7933
   9.930   1.1510   0.01499   0.01099  -0.0275  0.4539  0.7931
   9.940   1.1223   0.01612   0.01201  -0.0230  0.4350  0.7934
   9.950   1.1327   0.01576   0.01169  -0.0244  0.4407  0.7933
   9.960   1.1339   0.01576   0.01169  -0.0245  0.4410  0.7934
   9.970   1.1328   0.01584   0.01177  -0.0242  0.4397  0.7934
   9.980   1.1182   0.01646   0.01233  -0.0218  0.4301  0.7936
   9.990   1.1329   0.01593   0.01185  -0.0239  0.4387  0.7935
  10.000   1.1387   0.01575   0.01169  -0.0246  0.4423  0.7935
  10.010   1.1400   0.01574   0.01169  -0.0247  0.4426  0.7935
  10.020   1.1253   0.01636   0.01226  -0.0223  0.4331  0.7937
  10.030   1.1254   0.01640   0.01230  -0.0222  0.4325  0.7937
  10.040   1.1300   0.01627   0.01218  -0.0228  0.4351  0.7937
  10.050   1.1267   0.01644   0.01234  -0.0221  0.4324  0.7938
  10.060   1.1150   0.01695   0.01280  -0.0202  0.4243  0.7939
  10.070   1.1023   0.01752   0.01332  -0.0182  0.4153  0.7941
  10.080   1.1040   0.01750   0.01330  -0.0183  0.4158  0.7941
  10.090   1.1195   0.01691   0.01277  -0.0205  0.4254  0.7940
  10.100   1.1311   0.01649   0.01240  -0.0221  0.4329  0.7939
  10.110   1.1279   0.01666   0.01256  -0.0215  0.4299  0.7940
  10.120   1.1140   0.01727   0.01311  -0.0193  0.4204  0.7941
  10.130   1.1285   0.01673   0.01262  -0.0213  0.4292  0.7941
