  
       XFOIL         Version 6.94
  
 Calculated polar for: 1080                                            
  
 1 1 Reynolds number fixed          Mach number fixed         
  
 xtrf =   1.000 (top)        1.000 (bottom)  
 Mach =   0.000     Re =     2.000 e 6     Ncrit =   9.000
  
  alpha     CL        CD       CDp       CM    Top_Xtr Bot_Xtr
 ------- -------- --------- --------- -------- ------- -------
   6.000   1.1718   0.00962   0.00450  -0.0884  0.2888  0.7928
   6.010   1.1725   0.00964   0.00451  -0.0883  0.2878  0.7928
   6.020   1.1723   0.00969   0.00455  -0.0881  0.2854  0.7932
   6.030   1.1739   0.00968   0.00454  -0.0882  0.2863  0.7933
   6.040   1.1729   0.00976   0.00460  -0.0879  0.2821  0.7935
   6.050   1.1767   0.00966   0.00453  -0.0883  0.2878  0.7937
   6.060   1.1755   0.00975   0.00459  -0.0879  0.2835  0.7937
   6.070   1.1782   0.00969   0.00456  -0.0882  0.2865  0.7942
   6.080   1.1779   0.00975   0.00460  -0.0880  0.2842  0.7942
   6.090   1.1778   0.00980   0.00463  -0.0878  0.2814  0.7943
   6.100   1.1790   0.00980   0.00463  -0.0878  0.2817  0.7946
   6.110   1.1784   0.00987   0.00468  -0.0875  0.2781  0.7948
   6.120   1.1803   0.00984   0.00466  -0.0877  0.2797  0.7950
   6.150   1.1833   0.00986   0.00468  -0.0876  0.2793  0.7955
   6.160   1.1842   0.00987   0.00469  -0.0876  0.2791  0.7957
   6.170   1.1851   0.00987   0.00470  -0.0876  0.2788  0.7959
   6.180   1.1870   0.00985   0.00468  -0.0877  0.2806  0.7962
   6.190   1.1862   0.00992   0.00473  -0.0874  0.2771  0.7963
   6.200   1.1856   0.00999   0.00478  -0.0871  0.2737  0.7964
   6.210   1.1882   0.00993   0.00475  -0.0873  0.2770  0.7968
   6.220   1.1877   0.00999   0.00479  -0.0871  0.2739  0.7969
   6.230   1.1910   0.00991   0.00474  -0.0875  0.2782  0.7971
   6.240   1.1903   0.00998   0.00479  -0.0872  0.2749  0.7973
   6.250   1.1925   0.00994   0.00476  -0.0873  0.2773  0.7976
   6.260   1.1922   0.01000   0.00480  -0.0871  0.2746  0.7976
   6.270   1.1926   0.01002   0.00482  -0.0870  0.2732  0.7980
   6.280   1.1938   0.01002   0.00483  -0.0870  0.2735  0.7982
   6.290   1.1970   0.00995   0.00478  -0.0874  0.2778  0.7984
   6.300   1.1959   0.01003   0.00484  -0.0870  0.2736  0.7986
   6.310   1.1974   0.01001   0.00483  -0.0871  0.2749  0.7988
   6.320   1.1974   0.01006   0.00486  -0.0869  0.2725  0.7989
   6.330   1.1974   0.01010   0.00489  -0.0867  0.2704  0.7993
   6.340   1.1979   0.01013   0.00491  -0.0866  0.2696  0.7994
   6.350   1.1975   0.01018   0.00495  -0.0864  0.2669  0.7996
   6.360   1.1972   0.01024   0.00499  -0.0861  0.2640  0.7997
   6.370   1.2004   0.01016   0.00494  -0.0865  0.2687  0.8000
   6.380   1.2018   0.01015   0.00494  -0.0866  0.2693  0.8000
   6.400   1.2041   0.01015   0.00494  -0.0866  0.2697  0.8006
   6.410   1.2009   0.01031   0.00505  -0.0859  0.2618  0.8009
   6.420   1.2047   0.01021   0.00499  -0.0863  0.2671  0.8011
   6.430   1.2047   0.01025   0.00502  -0.0861  0.2649  0.8014
   6.440   1.2026   0.01037   0.00510  -0.0856  0.2594  0.8015
   6.450   1.2003   0.01049   0.00518  -0.0851  0.2538  0.8019
   6.460   1.2088   0.01023   0.00501  -0.0863  0.2671  0.8020
   6.470   1.2009   0.01055   0.00523  -0.0848  0.2510  0.8020
   6.480   1.1933   0.01085   0.00544  -0.0833  0.2369  0.8026
   6.490   1.2068   0.01043   0.00515  -0.0854  0.2578  0.8027
   6.500   1.2033   0.01059   0.00526  -0.0846  0.2499  0.8030
   6.510   1.2117   0.01033   0.00509  -0.0859  0.2629  0.8033
   6.520   1.2112   0.01039   0.00513  -0.0856  0.2606  0.8034
   6.530   1.2068   0.01059   0.00527  -0.0847  0.2508  0.8036
   6.540   1.2121   0.01044   0.00517  -0.0854  0.2582  0.8038
   6.550   1.2109   0.01053   0.00523  -0.0850  0.2545  0.8042
   6.560   1.2099   0.01060   0.00528  -0.0847  0.2510  0.8043
   6.570   1.2092   0.01066   0.00533  -0.0844  0.2481  0.8047
   6.580   1.2078   0.01075   0.00539  -0.0840  0.2444  0.8049
   6.590   1.2081   0.01078   0.00541  -0.0838  0.2431  0.8052
   6.600   1.2145   0.01060   0.00529  -0.0847  0.2524  0.8054
   6.610   1.2138   0.01066   0.00534  -0.0844  0.2491  0.8056
   6.620   1.1904   0.01136   0.00583  -0.0802  0.2165  0.8059
   6.630   1.2027   0.01109   0.00564  -0.0822  0.2296  0.8060
   6.640   1.2204   0.01056   0.00527  -0.0850  0.2551  0.8063
   6.650   1.2156   0.01076   0.00541  -0.0840  0.2462  0.8067
   6.660   1.2154   0.01081   0.00544  -0.0838  0.2440  0.8069
   6.670   1.2156   0.01084   0.00547  -0.0836  0.2425  0.8071
   6.680   1.2010   0.01127   0.00577  -0.0809  0.2224  0.8073
   6.710   1.2058   0.01123   0.00575  -0.0812  0.2252  0.8081
   6.720   1.2054   0.01127   0.00578  -0.0810  0.2237  0.8083
   6.730   1.2183   0.01096   0.00557  -0.0830  0.2385  0.8087
   6.740   1.2066   0.01129   0.00580  -0.0808  0.2231  0.8088
   6.750   1.2025   0.01141   0.00589  -0.0799  0.2179  0.8091
   6.760   1.2222   0.01095   0.00557  -0.0831  0.2398  0.8094
   6.770   1.1935   0.01169   0.00611  -0.0780  0.2063  0.8097
   6.780   1.2162   0.01116   0.00573  -0.0817  0.2300  0.8098
   6.790   1.2124   0.01127   0.00581  -0.0809  0.2252  0.8102
   6.800   1.2033   0.01153   0.00599  -0.0791  0.2139  0.8102
   6.810   1.2045   0.01152   0.00599  -0.0791  0.2142  0.8106
   6.820   1.2147   0.01130   0.00583  -0.0807  0.2248  0.8109
   6.830   1.2090   0.01146   0.00596  -0.0795  0.2178  0.8112
   6.840   1.2009   0.01170   0.00614  -0.0779  0.2079  0.8115
   6.850   1.1999   0.01175   0.00618  -0.0776  0.2062  0.8119
   6.860   1.2049   0.01165   0.00611  -0.0782  0.2106  0.8121
   6.870   1.1971   0.01189   0.00629  -0.0767  0.2013  0.8123
   6.880   1.2044   0.01172   0.00616  -0.0778  0.2082  0.8128
   6.890   1.2015   0.01183   0.00625  -0.0771  0.2045  0.8129
   6.900   1.2101   0.01163   0.00610  -0.0784  0.2125  0.8132
   6.910   1.2113   0.01162   0.00610  -0.0784  0.2128  0.8135
   6.920   1.2123   0.01163   0.00611  -0.0784  0.2130  0.8139
   6.930   1.2025   0.01192   0.00633  -0.0765  0.2019  0.8142
   6.940   1.1788   0.01261   0.00687  -0.0725  0.1775  0.8142
   6.950   1.2096   0.01178   0.00623  -0.0774  0.2075  0.8145
   6.960   1.1939   0.01224   0.00659  -0.0746  0.1909  0.8149
   6.970   1.1934   0.01229   0.00663  -0.0743  0.1895  0.8151
   6.980   1.1995   0.01215   0.00652  -0.0751  0.1947  0.8153
   6.990   1.1982   0.01222   0.00658  -0.0747  0.1929  0.8157
   7.000   1.1922   0.01241   0.00674  -0.0736  0.1861  0.8160
   7.010   1.1846   0.01266   0.00694  -0.0722  0.1779  0.8162
   7.020   1.2104   0.01197   0.00639  -0.0762  0.2025  0.8165
   7.030   1.1873   0.01265   0.00693  -0.0723  0.1790  0.8169
   7.040   1.1981   0.01237   0.00671  -0.0738  0.1885  0.8170
   7.050   1.2072   0.01215   0.00654  -0.0752  0.1969  0.8173
   7.060   1.1963   0.01249   0.00681  -0.0732  0.1854  0.8177
   7.070   1.2036   0.01231   0.00667  -0.0742  0.1918  0.8177
   7.080   1.2136   0.01207   0.00648  -0.0757  0.2007  0.8180
   7.090   1.1927   0.01269   0.00698  -0.0721  0.1798  0.8182
   7.100   1.2039   0.01240   0.00675  -0.0737  0.1894  0.8185
   7.110   1.2083   0.01231   0.00668  -0.0743  0.1931  0.8189
   7.120   1.1902   0.01286   0.00712  -0.0712  0.1751  0.8192
   7.130   1.2142   0.01221   0.00660  -0.0749  0.1974  0.8191
   7.160   1.1695   0.01361   0.00777  -0.0674  0.1540  0.8202
   7.170   1.2124   0.01238   0.00675  -0.0739  0.1927  0.8202
   7.180   1.1758   0.01348   0.00767  -0.0680  0.1584  0.8208
   7.190   1.2029   0.01271   0.00702  -0.0720  0.1819  0.8206
   7.200   1.1926   0.01304   0.00730  -0.0702  0.1717  0.8212
   7.210   1.1745   0.01362   0.00780  -0.0673  0.1554  0.8218
   7.230   1.2028   0.01284   0.00714  -0.0713  0.1791  0.8216
   7.240   1.1818   0.01350   0.00770  -0.0679  0.1598  0.8223
   7.250   1.2051   0.01283   0.00715  -0.0713  0.1799  0.8220
   7.260   1.1996   0.01302   0.00731  -0.0703  0.1743  0.8225
   7.270   1.2047   0.01291   0.00721  -0.0709  0.1779  0.8225
   7.280   1.1995   0.01309   0.00737  -0.0700  0.1727  0.8229
   7.300   1.1551   0.01459   0.00868  -0.0632  0.1350  0.8246
   7.310   1.2009   0.01315   0.00743  -0.0697  0.1719  0.8240
   7.320   1.1673   0.01424   0.00838  -0.0646  0.1436  0.8248
   7.330   1.1914   0.01350   0.00773  -0.0679  0.1627  0.8244
   7.340   1.1882   0.01364   0.00785  -0.0673  0.1593  0.8247
   7.350   1.1874   0.01370   0.00791  -0.0670  0.1582  0.8251
   7.360   1.1794   0.01399   0.00816  -0.0657  0.1511  0.8255
   7.370   1.1991   0.01340   0.00766  -0.0684  0.1667  0.8251
   7.380   1.1987   0.01345   0.00770  -0.0682  0.1656  0.8252
   7.400   1.1763   0.01424   0.00840  -0.0647  0.1467  0.8266
   7.410   1.1806   0.01413   0.00831  -0.0651  0.1494  0.8265
   7.440   1.1785   0.01431   0.00848  -0.0644  0.1464  0.8278
   7.450   1.2074   0.01342   0.00769  -0.0684  0.1691  0.8268
