  
       XFOIL         Version 6.94
  
 Calculated polar for: 1080                                            
  
 1 1 Reynolds number fixed          Mach number fixed         
  
 xtrf =   1.000 (top)        1.000 (bottom)  
 Mach =   0.000     Re =     2.000 e 6     Ncrit =   9.000
  
  alpha     CL        CD       CDp       CM    Top_Xtr Bot_Xtr
 ------- -------- --------- --------- -------- ------- -------
   6.000   1.1506   0.00835   0.00435  -0.0970  0.5798  0.7817
   6.010   1.1466   0.00838   0.00439  -0.0960  0.5782  0.7817
   6.020   1.1522   0.00836   0.00436  -0.0969  0.5796  0.7817
   6.030   1.1532   0.00836   0.00437  -0.0969  0.5796  0.7817
   6.040   1.1535   0.00837   0.00437  -0.0968  0.5794  0.7817
   6.050   1.1535   0.00838   0.00439  -0.0966  0.5791  0.7818
   6.060   1.1543   0.00838   0.00439  -0.0966  0.5790  0.7818
   6.070   1.1534   0.00840   0.00441  -0.0962  0.5784  0.7818
   6.080   1.1521   0.00842   0.00443  -0.0958  0.5776  0.7819
   6.090   1.1567   0.00840   0.00441  -0.0965  0.5787  0.7819
   6.100   1.1560   0.00841   0.00443  -0.0962  0.5782  0.7819
   6.110   1.1562   0.00842   0.00444  -0.0960  0.5779  0.7819
   6.120   1.1575   0.00842   0.00444  -0.0961  0.5780  0.7820
   6.130   1.1469   0.00855   0.00452  -0.0938  0.5733  0.7821
   6.140   1.1612   0.00842   0.00444  -0.0964  0.5785  0.7820
   6.150   1.1611   0.00843   0.00445  -0.0962  0.5781  0.7820
   6.160   1.1588   0.00846   0.00448  -0.0956  0.5770  0.7821
   6.170   1.1631   0.00844   0.00446  -0.0962  0.5781  0.7820
   6.180   1.1599   0.00847   0.00450  -0.0954  0.5767  0.7821
   6.190   1.1638   0.00845   0.00448  -0.0960  0.5776  0.7821
   6.200   1.1545   0.00857   0.00455  -0.0939  0.5735  0.7822
   6.210   1.1647   0.00847   0.00450  -0.0958  0.5773  0.7821
   6.220   1.1667   0.00847   0.00450  -0.0960  0.5776  0.7822
   6.230   1.1651   0.00849   0.00452  -0.0955  0.5767  0.7822
   6.240   1.1661   0.00849   0.00452  -0.0955  0.5767  0.7822
   6.250   1.1678   0.00849   0.00452  -0.0956  0.5769  0.7822
   6.260   1.1653   0.00852   0.00455  -0.0949  0.5756  0.7823
   6.270   1.1695   0.00850   0.00453  -0.0956  0.5768  0.7823
   6.280   1.1655   0.00855   0.00457  -0.0946  0.5748  0.7824
   6.290   1.1663   0.00856   0.00458  -0.0946  0.5748  0.7824
   6.300   1.1584   0.00866   0.00468  -0.0928  0.5709  0.7825
   6.310   1.1738   0.00852   0.00455  -0.0957  0.5768  0.7824
   6.320   1.1695   0.00857   0.00459  -0.0946  0.5748  0.7824
   6.330   1.1735   0.00854   0.00458  -0.0952  0.5760  0.7824
   6.340   1.1726   0.00857   0.00459  -0.0949  0.5752  0.7825
   6.350   1.1729   0.00858   0.00460  -0.0947  0.5749  0.7825
   6.360   1.1726   0.00860   0.00461  -0.0945  0.5744  0.7825
   6.370   1.1670   0.00868   0.00469  -0.0932  0.5717  0.7826
   6.380   1.1731   0.00863   0.00463  -0.0942  0.5735  0.7826
   6.390   1.1725   0.00865   0.00466  -0.0939  0.5729  0.7826
   6.400   1.1810   0.00857   0.00461  -0.0954  0.5760  0.7826
   6.410   1.1715   0.00869   0.00471  -0.0933  0.5718  0.7827
   6.420   1.1774   0.00865   0.00465  -0.0943  0.5735  0.7827
   6.440   1.1708   0.00874   0.00476  -0.0926  0.5699  0.7828
   6.450   1.1763   0.00870   0.00472  -0.0935  0.5721  0.7828
   6.460   1.1843   0.00862   0.00465  -0.0949  0.5749  0.7827
   6.470   1.1800   0.00869   0.00471  -0.0939  0.5727  0.7828
   6.480   1.1827   0.00868   0.00469  -0.0942  0.5731  0.7828
   6.490   1.1781   0.00873   0.00476  -0.0931  0.5711  0.7829
   6.500   1.1705   0.00885   0.00487  -0.0915  0.5667  0.7830
   6.510   1.1826   0.00872   0.00474  -0.0936  0.5722  0.7829
   6.520   1.1852   0.00871   0.00473  -0.0940  0.5727  0.7829
   6.530   1.1810   0.00876   0.00480  -0.0930  0.5705  0.7830
   6.540   1.1863   0.00873   0.00475  -0.0938  0.5724  0.7830
   6.550   1.1840   0.00876   0.00480  -0.0932  0.5710  0.7830
   6.560   1.1781   0.00885   0.00488  -0.0918  0.5674  0.7831
   6.570   1.1847   0.00878   0.00482  -0.0929  0.5703  0.7831
   6.580   1.1828   0.00882   0.00486  -0.0924  0.5687  0.7832
   6.600   1.1883   0.00879   0.00483  -0.0931  0.5706  0.7832
   6.610   1.1881   0.00881   0.00485  -0.0928  0.5699  0.7832
   6.620   1.1828   0.00889   0.00493  -0.0916  0.5668  0.7833
   6.630   1.1860   0.00886   0.00491  -0.0921  0.5679  0.7833
   6.640   1.1938   0.00879   0.00483  -0.0934  0.5713  0.7832
   6.650   1.1953   0.00879   0.00483  -0.0935  0.5715  0.7832
   6.660   1.1938   0.00882   0.00486  -0.0930  0.5703  0.7833
   6.670   1.1955   0.00882   0.00486  -0.0932  0.5707  0.7833
   6.680   1.1835   0.00901   0.00502  -0.0907  0.5647  0.7835
   6.690   1.1892   0.00893   0.00497  -0.0916  0.5667  0.7835
   6.700   1.1960   0.00886   0.00491  -0.0927  0.5694  0.7834
   6.710   1.1862   0.00903   0.00504  -0.0907  0.5645  0.7836
   6.720   1.2000   0.00884   0.00490  -0.0931  0.5704  0.7835
   6.730   1.1905   0.00900   0.00502  -0.0911  0.5656  0.7836
   6.740   1.1894   0.00904   0.00505  -0.0907  0.5647  0.7836
   6.750   1.2009   0.00888   0.00493  -0.0927  0.5694  0.7835
   6.760   1.1937   0.00901   0.00504  -0.0912  0.5657  0.7836
   6.770   1.1944   0.00902   0.00505  -0.0911  0.5655  0.7837
   6.780   1.1950   0.00903   0.00506  -0.0911  0.5654  0.7837
   6.790   1.1925   0.00908   0.00512  -0.0904  0.5628  0.7838
   6.800   1.1954   0.00907   0.00509  -0.0908  0.5647  0.7838
   6.810   1.2004   0.00900   0.00505  -0.0916  0.5664  0.7837
   6.820   1.1969   0.00908   0.00511  -0.0907  0.5643  0.7838
   6.830   1.2025   0.00901   0.00505  -0.0916  0.5664  0.7838
   6.840   1.2022   0.00903   0.00507  -0.0914  0.5659  0.7838
   6.850   1.2035   0.00903   0.00508  -0.0914  0.5660  0.7838
   6.860   1.1989   0.00912   0.00516  -0.0904  0.5624  0.7839
   6.870   1.2024   0.00910   0.00513  -0.0908  0.5647  0.7839
   6.880   1.2017   0.00912   0.00516  -0.0905  0.5633  0.7840
   6.890   1.2035   0.00912   0.00515  -0.0907  0.5641  0.7840
   6.900   1.2014   0.00916   0.00521  -0.0901  0.5611  0.7840
   6.910   1.2118   0.00902   0.00508  -0.0919  0.5670  0.7840
   6.920   1.2074   0.00912   0.00515  -0.0909  0.5648  0.7841
   6.930   1.2153   0.00900   0.00507  -0.0922  0.5678  0.7840
   6.940   1.2106   0.00910   0.00515  -0.0912  0.5653  0.7841
   6.950   1.2102   0.00913   0.00517  -0.0909  0.5647  0.7841
   6.960   1.2118   0.00913   0.00517  -0.0910  0.5650  0.7842
   6.970   1.2119   0.00915   0.00519  -0.0909  0.5645  0.7842
   6.980   1.2074   0.00923   0.00528  -0.0898  0.5600  0.7843
   6.990   1.2076   0.00925   0.00530  -0.0897  0.5595  0.7843
   7.000   1.2060   0.00931   0.00535  -0.0892  0.5581  0.7844
   7.010   1.2144   0.00918   0.00524  -0.0906  0.5635  0.7843
   7.020   1.2149   0.00920   0.00525  -0.0905  0.5629  0.7843
   7.030   1.2077   0.00935   0.00538  -0.0890  0.5576  0.7844
   7.040   1.2163   0.00921   0.00527  -0.0904  0.5625  0.7844
   7.050   1.2168   0.00922   0.00528  -0.0904  0.5621  0.7844
   7.060   1.2083   0.00941   0.00544  -0.0886  0.5567  0.7845
   7.070   1.2187   0.00924   0.00530  -0.0904  0.5621  0.7845
   7.080   1.2194   0.00924   0.00531  -0.0903  0.5619  0.7845
   7.090   1.2189   0.00927   0.00534  -0.0900  0.5607  0.7845
   7.100   1.2189   0.00930   0.00536  -0.0899  0.5600  0.7846
   7.110   1.2245   0.00923   0.00529  -0.0907  0.5637  0.7845
   7.120   1.2233   0.00926   0.00533  -0.0903  0.5619  0.7846
   7.130   1.2220   0.00931   0.00537  -0.0899  0.5602  0.7847
   7.140   1.2235   0.00930   0.00537  -0.0900  0.5605  0.7847
   7.150   1.2242   0.00931   0.00538  -0.0900  0.5604  0.7847
   7.160   1.2244   0.00933   0.00540  -0.0898  0.5599  0.7847
   7.170   1.2190   0.00946   0.00550  -0.0886  0.5567  0.7848
   7.180   1.2225   0.00942   0.00547  -0.0891  0.5578  0.7848
   7.190   1.2279   0.00934   0.00541  -0.0900  0.5603  0.7848
   7.200   1.2312   0.00930   0.00538  -0.0904  0.5622  0.7848
   7.210   1.2286   0.00937   0.00544  -0.0897  0.5595  0.7849
   7.220   1.2298   0.00937   0.00544  -0.0898  0.5597  0.7849
   7.230   1.2288   0.00941   0.00548  -0.0894  0.5586  0.7849
   7.240   1.2325   0.00936   0.00544  -0.0899  0.5602  0.7849
   7.250   1.2350   0.00934   0.00542  -0.0902  0.5613  0.7849
   7.260   1.2367   0.00934   0.00542  -0.0904  0.5619  0.7849
   7.270   1.2352   0.00938   0.00546  -0.0899  0.5600  0.7850
   7.280   1.2391   0.00934   0.00542  -0.0905  0.5623  0.7850
   7.290   1.2411   0.00933   0.00541  -0.0907  0.5632  0.7850
   7.300   1.2342   0.00947   0.00554  -0.0892  0.5580  0.7851
   7.310   1.2353   0.00948   0.00554  -0.0892  0.5580  0.7852
   7.320   1.2347   0.00951   0.00558  -0.0890  0.5573  0.7852
   7.330   1.2350   0.00953   0.00559  -0.0888  0.5571  0.7852
   7.340   1.2384   0.00949   0.00556  -0.0893  0.5581  0.7852
   7.350   1.2379   0.00952   0.00559  -0.0890  0.5574  0.7852
   7.360   1.2391   0.00952   0.00559  -0.0891  0.5576  0.7853
   7.370   1.2407   0.00951   0.00559  -0.0892  0.5579  0.7853
   7.380   1.2415   0.00952   0.00560  -0.0891  0.5578  0.7853
   7.390   1.2404   0.00957   0.00564  -0.0888  0.5570  0.7854
   7.400   1.2450   0.00950   0.00559  -0.0895  0.5585  0.7854
   7.410   1.2438   0.00955   0.00563  -0.0891  0.5576  0.7854
   7.420   1.2483   0.00949   0.00558  -0.0897  0.5592  0.7854
   7.430   1.2448   0.00958   0.00565  -0.0889  0.5572  0.7855
   7.440   1.2455   0.00959   0.00566  -0.0889  0.5571  0.7855
   7.450   1.2438   0.00965   0.00572  -0.0884  0.5554  0.7855
   7.460   1.2442   0.00967   0.00574  -0.0883  0.5543  0.7856
   7.470   1.2452   0.00967   0.00574  -0.0883  0.5546  0.7856
   7.480   1.2432   0.00974   0.00581  -0.0877  0.5515  0.7856
   7.490   1.2470   0.00969   0.00576  -0.0883  0.5544  0.7857
   7.500   1.2516   0.00962   0.00570  -0.0889  0.5573  0.7856
   7.510   1.2499   0.00968   0.00575  -0.0884  0.5563  0.7857
   7.520   1.2501   0.00970   0.00578  -0.0883  0.5550  0.7857
   7.530   1.2491   0.00974   0.00582  -0.0880  0.5526  0.7858
   7.540   1.2521   0.00971   0.00579  -0.0883  0.5552  0.7858
   7.560   1.2538   0.00973   0.00581  -0.0883  0.5548  0.7858
   7.570   1.2543   0.00974   0.00582  -0.0882  0.5541  0.7858
   7.580   1.2556   0.00974   0.00582  -0.0883  0.5547  0.7859
   7.590   1.2566   0.00974   0.00583  -0.0883  0.5549  0.7859
   7.600   1.2572   0.00975   0.00584  -0.0882  0.5544  0.7859
   7.610   1.2577   0.00977   0.00586  -0.0882  0.5537  0.7859
   7.620   1.2596   0.00976   0.00584  -0.0884  0.5553  0.7860
   7.630   1.2573   0.00983   0.00591  -0.0877  0.5516  0.7860
   7.640   1.2587   0.00982   0.00591  -0.0878  0.5520  0.7860
   7.650   1.2583   0.00986   0.00594  -0.0876  0.5510  0.7861
   7.660   1.2623   0.00980   0.00589  -0.0881  0.5536  0.7861
   7.670   1.2645   0.00978   0.00587  -0.0884  0.5557  0.7861
   7.680   1.2616   0.00987   0.00595  -0.0877  0.5514  0.7862
   7.690   1.2655   0.00981   0.00591  -0.0882  0.5542  0.7862
   7.700   1.2612   0.00993   0.00601  -0.0873  0.5500  0.7862
   7.710   1.2679   0.00981   0.00591  -0.0883  0.5551  0.7862
   7.720   1.2694   0.00981   0.00590  -0.0884  0.5560  0.7862
   7.730   1.2701   0.00982   0.00591  -0.0884  0.5556  0.7862
   7.740   1.2653   0.00995   0.00603  -0.0873  0.5501  0.7863
   7.750   1.2696   0.00988   0.00598  -0.0880  0.5525  0.7863
   7.760   1.2719   0.00985   0.00596  -0.0882  0.5540  0.7863
   7.770   1.2679   0.00997   0.00606  -0.0873  0.5501  0.7864
   7.780   1.2713   0.00992   0.00602  -0.0878  0.5516  0.7864
   7.790   1.2658   0.01008   0.00615  -0.0866  0.5483  0.7865
   7.800   1.2703   0.01000   0.00609  -0.0872  0.5498  0.7865
   7.810   1.2720   0.00998   0.00608  -0.0874  0.5502  0.7865
   7.820   1.2748   0.00995   0.00605  -0.0877  0.5514  0.7865
   7.830   1.2750   0.00997   0.00607  -0.0876  0.5509  0.7865
   7.840   1.2766   0.00996   0.00607  -0.0877  0.5514  0.7865
   7.850   1.2767   0.00999   0.00609  -0.0875  0.5508  0.7866
   7.860   1.2762   0.01003   0.00612  -0.0873  0.5500  0.7866
   7.870   1.2806   0.00995   0.00607  -0.0879  0.5523  0.7866
   7.880   1.2719   0.01019   0.00627  -0.0862  0.5455  0.7867
   7.890   1.2736   0.01017   0.00626  -0.0863  0.5466  0.7867
   7.900   1.2825   0.00999   0.00611  -0.0878  0.5516  0.7867
   7.910   1.2737   0.01023   0.00631  -0.0860  0.5446  0.7868
   7.920   1.2821   0.01005   0.00616  -0.0874  0.5502  0.7867
   7.930   1.2800   0.01013   0.00623  -0.0868  0.5488  0.7868
   7.940   1.2782   0.01021   0.00629  -0.0863  0.5467  0.7868
   7.950   1.2816   0.01015   0.00625  -0.0868  0.5488  0.7868
   7.960   1.2737   0.01038   0.00645  -0.0852  0.5414  0.7869
   7.970   1.2819   0.01020   0.00629  -0.0865  0.5483  0.7869
   7.980   1.2796   0.01029   0.00638  -0.0859  0.5440  0.7870
   7.990   1.2804   0.01030   0.00639  -0.0859  0.5440  0.7870
   8.000   1.2860   0.01019   0.00629  -0.0867  0.5487  0.7870
   8.010   1.2870   0.01019   0.00630  -0.0867  0.5487  0.7870
   8.020   1.2857   0.01025   0.00635  -0.0863  0.5474  0.7870
   8.030   1.2918   0.01014   0.00625  -0.0873  0.5500  0.7870
   8.040   1.2876   0.01027   0.00637  -0.0863  0.5479  0.7871
   8.050   1.2923   0.01018   0.00630  -0.0870  0.5494  0.7871
   8.060   1.2953   0.01014   0.00626  -0.0874  0.5504  0.7871
   8.070   1.2903   0.01029   0.00639  -0.0863  0.5475  0.7871
   8.080   1.2902   0.01032   0.00642  -0.0861  0.5457  0.7872
   8.090   1.2846   0.01049   0.00657  -0.0850  0.5409  0.7872
   8.100   1.2890   0.01041   0.00650  -0.0856  0.5428  0.7872
   8.110   1.2907   0.01040   0.00650  -0.0857  0.5434  0.7873
   8.120   1.2838   0.01061   0.00667  -0.0843  0.5376  0.7874
   8.130   1.2933   0.01039   0.00649  -0.0859  0.5442  0.7873
   8.140   1.2948   0.01038   0.00649  -0.0860  0.5447  0.7873
   8.150   1.2932   0.01045   0.00655  -0.0855  0.5426  0.7874
   8.160   1.2981   0.01036   0.00647  -0.0862  0.5468  0.7873
   8.170   1.2993   0.01036   0.00647  -0.0863  0.5474  0.7874
   8.180   1.2906   0.01061   0.00669  -0.0846  0.5399  0.7875
   8.190   1.2988   0.01043   0.00654  -0.0858  0.5441  0.7874
   8.200   1.3007   0.01041   0.00653  -0.0860  0.5451  0.7874
   8.210   1.3017   0.01041   0.00653  -0.0860  0.5453  0.7875
   8.220   1.2990   0.01051   0.00662  -0.0854  0.5422  0.7875
   8.230   1.2928   0.01071   0.00679  -0.0841  0.5367  0.7876
   8.240   1.2995   0.01056   0.00667  -0.0852  0.5414  0.7876
   8.250   1.3041   0.01047   0.00659  -0.0858  0.5439  0.7875
   8.260   1.3039   0.01051   0.00663  -0.0856  0.5431  0.7876
   8.270   1.2980   0.01070   0.00679  -0.0844  0.5388  0.7877
   8.280   1.2964   0.01077   0.00686  -0.0839  0.5359  0.7877
   8.290   1.3084   0.01048   0.00661  -0.0859  0.5446  0.7876
   8.300   1.2988   0.01077   0.00686  -0.0840  0.5365  0.7877
   8.310   1.3073   0.01057   0.00669  -0.0854  0.5423  0.7877
   8.320   1.3055   0.01065   0.00676  -0.0849  0.5409  0.7877
   8.330   1.3101   0.01056   0.00669  -0.0856  0.5429  0.7877
   8.340   1.3022   0.01080   0.00690  -0.0840  0.5364  0.7878
   8.350   1.3030   0.01082   0.00691  -0.0840  0.5363  0.7878
   8.360   1.3105   0.01065   0.00676  -0.0851  0.5415  0.7878
   8.370   1.3029   0.01088   0.00697  -0.0836  0.5348  0.7879
   8.380   1.3168   0.01054   0.00668  -0.0859  0.5448  0.7878
   8.390   1.3052   0.01089   0.00698  -0.0837  0.5351  0.7879
   8.400   1.3133   0.01069   0.00681  -0.0850  0.5412  0.7879
   8.410   1.2872   0.01148   0.00749  -0.0803  0.5197  0.7881
   8.420   1.3012   0.01110   0.00717  -0.0825  0.5310  0.7880
   8.430   1.3115   0.01084   0.00695  -0.0842  0.5379  0.7880
   8.440   1.3176   0.01071   0.00683  -0.0851  0.5415  0.7880
   8.450   1.3051   0.01108   0.00716  -0.0827  0.5321  0.7881
   8.460   1.3143   0.01086   0.00697  -0.0842  0.5380  0.7880
   8.470   1.3158   0.01085   0.00696  -0.0843  0.5394  0.7881
   8.480   1.3152   0.01090   0.00701  -0.0840  0.5370  0.7881
   8.490   1.3173   0.01087   0.00699  -0.0842  0.5387  0.7881
   8.500   1.3159   0.01095   0.00706  -0.0838  0.5359  0.7881
   8.510   1.3225   0.01080   0.00693  -0.0848  0.5409  0.7881
   8.520   1.3182   0.01095   0.00706  -0.0839  0.5364  0.7882
   8.530   1.3103   0.01120   0.00728  -0.0824  0.5299  0.7882
   8.540   1.3190   0.01099   0.00710  -0.0837  0.5355  0.7882
   8.550   1.3166   0.01109   0.00719  -0.0831  0.5333  0.7882
   8.560   1.3263   0.01085   0.00699  -0.0847  0.5407  0.7882
   8.570   1.3115   0.01130   0.00738  -0.0819  0.5274  0.7883
   8.580   1.3148   0.01124   0.00733  -0.0823  0.5300  0.7883
   8.590   1.3105   0.01140   0.00747  -0.0815  0.5255  0.7884
   8.600   1.2933   0.01196   0.00795  -0.0783  0.5119  0.7886
   8.610   1.2639   0.01295   0.00883  -0.0733  0.4908  0.7890
   8.630   1.3192   0.01128   0.00737  -0.0823  0.5299  0.7884
   8.640   1.3032   0.01179   0.00782  -0.0794  0.5170  0.7887
   8.650   1.3220   0.01127   0.00737  -0.0825  0.5311  0.7884
   8.670   1.3128   0.01160   0.00767  -0.0806  0.5232  0.7887
   8.690   1.3137   0.01164   0.00771  -0.0804  0.5221  0.7887
   8.700   1.3274   0.01128   0.00739  -0.0826  0.5320  0.7886
   8.710   1.3308   0.01121   0.00733  -0.0831  0.5333  0.7886
   8.720   1.3149   0.01171   0.00777  -0.0801  0.5205  0.7889
   8.730   1.3282   0.01135   0.00746  -0.0823  0.5302  0.7887
   8.740   1.2943   0.01243   0.00841  -0.0764  0.5043  0.7892
   8.750   1.3251   0.01151   0.00761  -0.0814  0.5261  0.7889
   8.760   1.3189   0.01172   0.00780  -0.0802  0.5212  0.7890
   8.770   1.3082   0.01209   0.00812  -0.0782  0.5120  0.7892
   8.780   1.3173   0.01184   0.00791  -0.0796  0.5183  0.7891
   8.790   1.3151   0.01194   0.00800  -0.0791  0.5164  0.7892
   8.800   1.3339   0.01141   0.00753  -0.0822  0.5300  0.7890
   8.810   1.3048   0.01234   0.00836  -0.0770  0.5080  0.7894
   8.820   1.3138   0.01209   0.00813  -0.0784  0.5132  0.7893
   8.830   1.3259   0.01175   0.00784  -0.0803  0.5223  0.7892
   8.840   1.3006   0.01259   0.00858  -0.0759  0.5028  0.7895
   8.850   1.3242   0.01187   0.00795  -0.0797  0.5189  0.7893
   8.860   1.3218   0.01198   0.00805  -0.0792  0.5168  0.7894
   8.870   1.3209   0.01204   0.00811  -0.0789  0.5159  0.7895
   8.880   1.2826   0.01335   0.00927  -0.0723  0.4885  0.7899
   8.890   1.3031   0.01269   0.00869  -0.0756  0.5016  0.7897
   8.900   1.3031   0.01273   0.00873  -0.0754  0.5009  0.7898
   8.910   1.3006   0.01285   0.00883  -0.0748  0.4990  0.7898
   8.920   1.3107   0.01255   0.00857  -0.0764  0.5054  0.7897
   8.930   1.2911   0.01325   0.00920  -0.0730  0.4916  0.7900
   8.940   1.3227   0.01224   0.00830  -0.0781  0.5123  0.7897
   8.950   1.2969   0.01313   0.00909  -0.0737  0.4938  0.7900
   8.960   1.3011   0.01303   0.00900  -0.0742  0.4960  0.7900
   8.970   1.3164   0.01255   0.00859  -0.0766  0.5068  0.7899
   8.980   1.2455   0.01512   0.01091  -0.0650  0.4605  0.7905
   8.990   1.3038   0.01305   0.00903  -0.0742  0.4962  0.7901
   9.000   1.3288   0.01226   0.00834  -0.0782  0.5133  0.7899
   9.010   1.2815   0.01391   0.00981  -0.0702  0.4806  0.7904
   9.020   1.3249   0.01246   0.00852  -0.0772  0.5093  0.7900
   9.030   1.3335   0.01222   0.00831  -0.0785  0.5155  0.7899
   9.040   1.3147   0.01287   0.00889  -0.0752  0.5009  0.7902
   9.050   1.2957   0.01357   0.00951  -0.0720  0.4878  0.7904
   9.060   1.3068   0.01322   0.00921  -0.0736  0.4945  0.7903
   9.070   1.3188   0.01285   0.00888  -0.0755  0.5018  0.7902
   9.080   1.2876   0.01398   0.00989  -0.0702  0.4809  0.7905
   9.090   1.3368   0.01233   0.00843  -0.0782  0.5138  0.7901
   9.100   1.3166   0.01304   0.00905  -0.0746  0.4992  0.7904
   9.110   1.3101   0.01330   0.00929  -0.0734  0.4940  0.7904
   9.120   1.2376   0.01607   0.01182  -0.0618  0.4500  0.7911
   9.130   1.2947   0.01392   0.00986  -0.0706  0.4829  0.7907
   9.140   1.3072   0.01352   0.00950  -0.0725  0.4909  0.7906
   9.150   1.2982   0.01388   0.00982  -0.0709  0.4841  0.7907
   9.160   1.3344   0.01267   0.00875  -0.0767  0.5081  0.7904
   9.170   1.3341   0.01272   0.00879  -0.0765  0.5075  0.7905
