  
       XFOIL         Version 6.94
  
 Calculated polar for: 1080                                            
  
 1 1 Reynolds number fixed          Mach number fixed         
  
 xtrf =   1.000 (top)        1.000 (bottom)  
 Mach =   0.000     Re =     2.000 e 6     Ncrit =   9.000
  
  alpha     CL        CD       CDp       CM    Top_Xtr Bot_Xtr
 ------- -------- --------- --------- -------- ------- -------
   6.000   1.5366   0.01063   0.00581  -0.1785  0.4527  0.4893
   6.010   1.5373   0.01063   0.00583  -0.1784  0.4525  0.4896
   6.020   1.5381   0.01064   0.00584  -0.1784  0.4524  0.4897
   6.030   1.5389   0.01065   0.00585  -0.1783  0.4523  0.4897
   6.040   1.5395   0.01067   0.00586  -0.1782  0.4518  0.4899
   6.050   1.5403   0.01067   0.00587  -0.1782  0.4518  0.4900
   6.060   1.5409   0.01069   0.00588  -0.1781  0.4515  0.4901
   6.070   1.5416   0.01070   0.00590  -0.1781  0.4513  0.4904
   6.080   1.5421   0.01071   0.00591  -0.1780  0.4510  0.4904
   6.090   1.5430   0.01072   0.00592  -0.1779  0.4510  0.4907
   6.100   1.5435   0.01074   0.00593  -0.1779  0.4507  0.4906
   6.110   1.5441   0.01075   0.00595  -0.1778  0.4505  0.4909
   6.120   1.5447   0.01076   0.00596  -0.1777  0.4502  0.4910
   6.130   1.5453   0.01078   0.00598  -0.1776  0.4500  0.4910
   6.140   1.5460   0.01079   0.00599  -0.1776  0.4499  0.4912
   6.150   1.5463   0.01081   0.00601  -0.1775  0.4495  0.4914
   6.160   1.5470   0.01082   0.00602  -0.1774  0.4494  0.4914
   6.170   1.5477   0.01083   0.00603  -0.1773  0.4493  0.4916
   6.180   1.5480   0.01085   0.00605  -0.1772  0.4489  0.4918
   6.190   1.5486   0.01086   0.00607  -0.1771  0.4488  0.4919
   6.200   1.5491   0.01088   0.00608  -0.1770  0.4485  0.4921
   6.210   1.5497   0.01089   0.00610  -0.1770  0.4484  0.4921
   6.220   1.5501   0.01091   0.00611  -0.1769  0.4481  0.4922
   6.230   1.5507   0.01093   0.00613  -0.1768  0.4480  0.4922
   6.240   1.5512   0.01094   0.00614  -0.1767  0.4478  0.4924
   6.250   1.5513   0.01097   0.00617  -0.1766  0.4474  0.4925
   6.260   1.5519   0.01098   0.00618  -0.1765  0.4473  0.4927
   6.270   1.5524   0.01100   0.00620  -0.1764  0.4471  0.4928
   6.280   1.5529   0.01101   0.00622  -0.1763  0.4469  0.4929
   6.290   1.5531   0.01104   0.00624  -0.1762  0.4466  0.4931
   6.300   1.5538   0.01105   0.00625  -0.1761  0.4465  0.4932
   6.310   1.5541   0.01107   0.00627  -0.1760  0.4463  0.4933
   6.320   1.5544   0.01109   0.00630  -0.1758  0.4460  0.4934
   6.330   1.5543   0.01113   0.00632  -0.1757  0.4456  0.4936
   6.340   1.5547   0.01115   0.00634  -0.1755  0.4454  0.4936
   6.350   1.5553   0.01116   0.00636  -0.1755  0.4454  0.4937
   6.360   1.5554   0.01119   0.00638  -0.1753  0.4451  0.4938
   6.370   1.5559   0.01120   0.00640  -0.1752  0.4450  0.4940
   6.380   1.5560   0.01123   0.00643  -0.1751  0.4447  0.4941
   6.390   1.5561   0.01126   0.00645  -0.1749  0.4445  0.4942
   6.400   1.5565   0.01127   0.00647  -0.1748  0.4444  0.4943
   6.410   1.5566   0.01130   0.00650  -0.1747  0.4440  0.4944
   6.420   1.5574   0.01131   0.00651  -0.1746  0.4440  0.4946
   6.430   1.5580   0.01133   0.00652  -0.1746  0.4438  0.4947
   6.440   1.5587   0.01134   0.00654  -0.1745  0.4435  0.4949
   6.450   1.5594   0.01135   0.00655  -0.1745  0.4434  0.4950
   6.460   1.5601   0.01136   0.00656  -0.1744  0.4432  0.4952
   6.470   1.5608   0.01137   0.00658  -0.1743  0.4431  0.4952
   6.480   1.5614   0.01139   0.00659  -0.1743  0.4428  0.4954
   6.490   1.5621   0.01140   0.00660  -0.1742  0.4428  0.4955
   6.500   1.5627   0.01142   0.00662  -0.1741  0.4425  0.4957
   6.510   1.5633   0.01143   0.00664  -0.1741  0.4424  0.4958
   6.520   1.5639   0.01145   0.00665  -0.1740  0.4421  0.4958
   6.530   1.5645   0.01146   0.00667  -0.1739  0.4419  0.4961
   6.540   1.5651   0.01148   0.00668  -0.1739  0.4416  0.4962
   6.550   1.5657   0.01149   0.00670  -0.1738  0.4415  0.4963
   6.560   1.5663   0.01151   0.00671  -0.1737  0.4413  0.4965
   6.570   1.5668   0.01152   0.00673  -0.1737  0.4411  0.4964
   6.580   1.5673   0.01154   0.00675  -0.1736  0.4409  0.4967
   6.590   1.5678   0.01156   0.00677  -0.1735  0.4407  0.4969
   6.600   1.5682   0.01158   0.00679  -0.1734  0.4403  0.4969
   6.610   1.5688   0.01159   0.00680  -0.1733  0.4402  0.4971
   6.620   1.5693   0.01161   0.00682  -0.1732  0.4400  0.4971
   6.630   1.5696   0.01164   0.00685  -0.1731  0.4397  0.4973
   6.640   1.5701   0.01165   0.00686  -0.1730  0.4395  0.4975
   6.650   1.5705   0.01167   0.00688  -0.1729  0.4393  0.4974
   6.660   1.5710   0.01169   0.00690  -0.1728  0.4392  0.4976
   6.670   1.5713   0.01172   0.00693  -0.1727  0.4389  0.4977
   6.680   1.5714   0.01174   0.00696  -0.1726  0.4385  0.4979
   6.690   1.5720   0.01176   0.00697  -0.1725  0.4384  0.4980
   6.700   1.5722   0.01179   0.00700  -0.1724  0.4381  0.4979
   6.710   1.5724   0.01182   0.00703  -0.1722  0.4378  0.4981
   6.720   1.5727   0.01184   0.00705  -0.1721  0.4376  0.4982
   6.730   1.5731   0.01186   0.00707  -0.1720  0.4375  0.4984
   6.740   1.5733   0.01189   0.00710  -0.1719  0.4372  0.4984
   6.750   1.5734   0.01192   0.00713  -0.1718  0.4369  0.4986
   6.760   1.5737   0.01194   0.00715  -0.1716  0.4367  0.4986
   6.770   1.5736   0.01198   0.00719  -0.1715  0.4364  0.4987
   6.780   1.5741   0.01200   0.00721  -0.1714  0.4363  0.4990
   6.790   1.5741   0.01203   0.00724  -0.1712  0.4361  0.4991
   6.800   1.5741   0.01207   0.00727  -0.1711  0.4358  0.4991
   6.810   1.5743   0.01210   0.00730  -0.1709  0.4356  0.4992
   6.820   1.5738   0.01215   0.00735  -0.1707  0.4351  0.4993
   6.830   1.5744   0.01216   0.00737  -0.1706  0.4352  0.4994
   6.840   1.5744   0.01220   0.00740  -0.1705  0.4350  0.4995
   6.850   1.5742   0.01224   0.00745  -0.1703  0.4346  0.4996
   6.860   1.5744   0.01227   0.00747  -0.1702  0.4345  0.4997
   6.870   1.5740   0.01232   0.00752  -0.1700  0.4342  0.4998
   6.880   1.5739   0.01236   0.00756  -0.1698  0.4340  0.4999
   6.890   1.5739   0.01240   0.00760  -0.1696  0.4338  0.4999
