  
       XFOIL         Version 6.94
  
 Calculated polar for: 1080                                            
  
 1 1 Reynolds number fixed          Mach number fixed         
  
 xtrf =   1.000 (top)        1.000 (bottom)  
 Mach =   0.000     Re =     2.000 e 6     Ncrit =   9.000
  
  alpha     CL        CD       CDp       CM    Top_Xtr Bot_Xtr
 ------- -------- --------- --------- -------- ------- -------
   6.000   1.2051   0.00719   0.00326  -0.1182  0.5037  0.8063
   6.010   1.2013   0.00728   0.00332  -0.1173  0.4984  0.8067
   6.020   1.2090   0.00716   0.00324  -0.1186  0.5060  0.8070
   6.030   1.1956   0.00743   0.00342  -0.1157  0.4901  0.8076
   6.040   1.2058   0.00727   0.00331  -0.1175  0.5005  0.8078
   6.050   1.2109   0.00719   0.00327  -0.1184  0.5047  0.8080
   6.060   1.1885   0.00763   0.00357  -0.1137  0.4794  0.8086
   6.070   1.2055   0.00733   0.00336  -0.1169  0.4964  0.8088
   6.080   1.2140   0.00720   0.00328  -0.1183  0.5048  0.8090
   6.090   1.2013   0.00745   0.00345  -0.1156  0.4900  0.8095
   6.100   1.1962   0.00757   0.00354  -0.1144  0.4835  0.8100
   6.110   1.2032   0.00746   0.00346  -0.1156  0.4900  0.8100
   6.120   1.1990   0.00756   0.00354  -0.1145  0.4843  0.8105
   6.130   1.1946   0.00766   0.00361  -0.1135  0.4788  0.8111
   6.140   1.2016   0.00755   0.00354  -0.1146  0.4850  0.8112
   6.150   1.1868   0.00786   0.00376  -0.1115  0.4689  0.8117
   6.160   1.2090   0.00745   0.00347  -0.1157  0.4914  0.8118
   6.170   1.1990   0.00766   0.00363  -0.1135  0.4795  0.8123
   6.180   1.1683   0.00830   0.00410  -0.1074  0.4492  0.8131
   6.190   1.1975   0.00774   0.00368  -0.1128  0.4757  0.8129
   6.200   1.1944   0.00782   0.00375  -0.1120  0.4720  0.8132
   6.210   1.1928   0.00788   0.00379  -0.1115  0.4693  0.8137
   6.220   1.1966   0.00783   0.00375  -0.1120  0.4722  0.8140
   6.230   1.1726   0.00833   0.00413  -0.1072  0.4488  0.8147
   6.240   1.1892   0.00802   0.00390  -0.1102  0.4632  0.8148
   6.250   1.1933   0.00796   0.00386  -0.1108  0.4660  0.8150
   6.260   1.1783   0.00828   0.00410  -0.1077  0.4517  0.8155
   6.270   1.1734   0.00840   0.00420  -0.1066  0.4462  0.8160
   6.280   1.1945   0.00800   0.00390  -0.1104  0.4646  0.8159
   6.290   1.1854   0.00820   0.00405  -0.1084  0.4554  0.8164
   6.300   1.2086   0.00777   0.00373  -0.1127  0.4763  0.8162
   6.310   1.1576   0.00883   0.00454  -0.1028  0.4303  0.8177
   6.320   1.1559   0.00889   0.00459  -0.1023  0.4281  0.8180
   6.330   1.1692   0.00863   0.00439  -0.1046  0.4382  0.8180
   6.340   1.1692   0.00865   0.00441  -0.1044  0.4375  0.8183
   6.350   1.1863   0.00833   0.00416  -0.1074  0.4514  0.8181
   6.360   1.1619   0.00886   0.00458  -0.1027  0.4303  0.8188
   6.370   1.1736   0.00863   0.00440  -0.1047  0.4390  0.8189
   6.380   1.1801   0.00852   0.00432  -0.1057  0.4437  0.8190
   6.390   1.1955   0.00823   0.00410  -0.1084  0.4560  0.8191
   6.400   1.1695   0.00879   0.00454  -0.1033  0.4336  0.8198
   6.410   1.1710   0.00878   0.00453  -0.1034  0.4340  0.8201
   6.420   1.1610   0.00902   0.00473  -0.1014  0.4255  0.8205
   6.430   1.1668   0.00892   0.00465  -0.1022  0.4294  0.8206
   6.440   1.1763   0.00874   0.00451  -0.1038  0.4360  0.8206
   6.450   1.1573   0.00918   0.00486  -0.1001  0.4210  0.8213
   6.460   1.1881   0.00854   0.00436  -0.1056  0.4444  0.8209
   6.470   1.1696   0.00896   0.00469  -0.1020  0.4289  0.8214
   6.480   1.1584   0.00922   0.00491  -0.0998  0.4200  0.8221
   6.490   1.1474   0.00950   0.00515  -0.0976  0.4117  0.8228
   6.500   1.1843   0.00871   0.00450  -0.1041  0.4384  0.8220
   6.510   1.1607   0.00925   0.00494  -0.0996  0.4198  0.8229
   6.520   1.1801   0.00885   0.00462  -0.1030  0.4339  0.8226
   6.530   1.1744   0.00900   0.00474  -0.1017  0.4287  0.8231
   6.540   1.1888   0.00871   0.00451  -0.1042  0.4393  0.8230
   6.550   1.1745   0.00904   0.00478  -0.1014  0.4275  0.8235
   6.560   1.1690   0.00919   0.00491  -0.1002  0.4231  0.8240
   6.570   1.1796   0.00898   0.00474  -0.1019  0.4303  0.8240
   6.580   1.0957   0.01124   0.00672  -0.0876  0.3727  0.8266
   6.590   1.1358   0.01007   0.00567  -0.0939  0.3980  0.8255
   6.600   1.1414   0.00995   0.00557  -0.0947  0.4015  0.8258
   6.610   1.1711   0.00927   0.00499  -0.0997  0.4217  0.8251
   6.620   1.1857   0.00897   0.00474  -0.1021  0.4319  0.8251
   6.630   1.1764   0.00920   0.00494  -0.1002  0.4241  0.8256
   6.640   1.1456   0.00996   0.00559  -0.0947  0.4024  0.8267
   6.650   1.1090   0.01106   0.00658  -0.0886  0.3781  0.8281
   6.660   1.1669   0.00950   0.00519  -0.0980  0.4154  0.8266
   6.670   1.1819   0.00918   0.00493  -0.1005  0.4256  0.8265
   6.680   1.1232   0.01072   0.00628  -0.0903  0.3856  0.8285
   6.690   1.1527   0.00993   0.00557  -0.0950  0.4042  0.8279
   6.700   1.1120   0.01116   0.00668  -0.0883  0.3777  0.8293
   6.710   1.0816   0.01237   0.00780  -0.0837  0.3577  0.8303
   6.720   1.1560   0.00993   0.00559  -0.0950  0.4048  0.8284
   6.730   1.1569   0.00994   0.00559  -0.0950  0.4049  0.8287
   6.740   1.1344   0.01060   0.00618  -0.0911  0.3903  0.8296
   6.750   1.1382   0.01052   0.00611  -0.0916  0.3923  0.8297
   6.760   1.1354   0.01063   0.00622  -0.0910  0.3900  0.8300
   6.770   1.1641   0.00987   0.00555  -0.0956  0.4076  0.8295
   6.780   1.1380   0.01063   0.00621  -0.0911  0.3908  0.8304
   6.790   1.1360   0.01072   0.00630  -0.0906  0.3889  0.8306
   6.800   1.1235   0.01116   0.00671  -0.0885  0.3810  0.8312
   6.810   1.1432   0.01057   0.00618  -0.0914  0.3926  0.8309
   6.820   1.1663   0.00997   0.00564  -0.0951  0.4065  0.8305
   6.830   1.1468   0.01053   0.00615  -0.0917  0.3939  0.8312
   6.840   1.1442   0.01064   0.00625  -0.0911  0.3922  0.8315
   6.850   1.1207   0.01145   0.00700  -0.0873  0.3767  0.8324
   6.860   1.1127   0.01180   0.00732  -0.0860  0.3717  0.8329
   6.870   1.1277   0.01129   0.00685  -0.0881  0.3807  0.8326
   6.880   1.1013   0.01235   0.00785  -0.0841  0.3631  0.8337
   6.890   1.1570   0.01043   0.00608  -0.0923  0.3975  0.8322
   6.900   1.1332   0.01121   0.00679  -0.0884  0.3826  0.8331
   6.910   1.1637   0.01030   0.00597  -0.0931  0.4012  0.8324
   6.920   1.0987   0.01267   0.00815  -0.0832  0.3599  0.8347
   6.930   1.1018   0.01258   0.00807  -0.0835  0.3615  0.8348
   6.940   1.1459   0.01094   0.00656  -0.0898  0.3887  0.8336
   6.950   1.1303   0.01152   0.00709  -0.0873  0.3787  0.8343
   6.960   1.1304   0.01156   0.00713  -0.0871  0.3784  0.8345
   6.970   1.0950   0.01310   0.00857  -0.0821  0.3545  0.8359
   6.980   1.0899   0.01340   0.00885  -0.0813  0.3508  0.8363
   6.990   1.0811   0.01387   0.00929  -0.0801  0.3434  0.8369
   7.000   1.0873   0.01363   0.00907  -0.0807  0.3477  0.8368
   7.010   1.1016   0.01301   0.00849  -0.0825  0.3573  0.8366
   7.020   1.0858   0.01381   0.00924  -0.0803  0.3454  0.8373
   7.030   1.1384   0.01156   0.00715  -0.0873  0.3806  0.8357
   7.040   1.0868   0.01388   0.00931  -0.0802  0.3450  0.8377
   7.050   1.0916   0.01370   0.00915  -0.0807  0.3484  0.8378
   7.060   1.1417   0.01156   0.00716  -0.0873  0.3815  0.8362
   7.070   1.0741   0.01465   0.01003  -0.0782  0.3341  0.8387
   7.080   1.1125   0.01288   0.00840  -0.0830  0.3616  0.8377
   7.090   1.1042   0.01332   0.00881  -0.0818  0.3550  0.8382
   7.100   1.0858   0.01425   0.00968  -0.0793  0.3414  0.8390
   7.110   1.0963   0.01381   0.00927  -0.0805  0.3487  0.8389
   7.120   1.1233   0.01260   0.00815  -0.0839  0.3668  0.8382
   7.130   1.0977   0.01385   0.00931  -0.0804  0.3488  0.8393
   7.140   1.1324   0.01230   0.00788  -0.0849  0.3721  0.8383
   7.150   1.1218   0.01283   0.00837  -0.0833  0.3643  0.8389
   7.160   1.1377   0.01218   0.00776  -0.0854  0.3743  0.8385
   7.170   1.0562   0.01604   0.01134  -0.0746  0.3154  0.8411
   7.190   1.0993   0.01411   0.00957  -0.0799  0.3467  0.8403
   7.200   1.0970   0.01428   0.00972  -0.0795  0.3443  0.8406
   7.220   1.1321   0.01273   0.00829  -0.0838  0.3681  0.8399
   7.230   1.0984   0.01438   0.00982  -0.0793  0.3437  0.8411
   7.240   1.0451   0.01692   0.01217  -0.0723  0.3031  0.8425
   7.260   1.0993   0.01450   0.00995  -0.0790  0.3429  0.8416
   7.270   1.0683   0.01601   0.01134  -0.0749  0.3199  0.8425
   7.280   1.1038   0.01439   0.00986  -0.0794  0.3452  0.8418
   7.290   1.1044   0.01442   0.00989  -0.0793  0.3452  0.8419
   7.300   1.1189   0.01378   0.00930  -0.0811  0.3549  0.8417
   7.310   1.0766   0.01583   0.01119  -0.0755  0.3237  0.8430
   7.320   1.1055   0.01453   0.01000  -0.0791  0.3445  0.8424
   7.330   1.0889   0.01537   0.01078  -0.0768  0.3320  0.8430
   7.340   1.0552   0.01698   0.01226  -0.0724  0.3062  0.8440
   7.350   1.1045   0.01474   0.01020  -0.0786  0.3423  0.8430
   7.360   1.0347   0.01802   0.01322  -0.0695  0.2890  0.8449
   7.370   1.0479   0.01747   0.01272  -0.0711  0.2992  0.8448
   7.380   1.0938   0.01540   0.01083  -0.0768  0.3331  0.8438
   7.390   1.0603   0.01700   0.01230  -0.0724  0.3080  0.8448
   7.400   1.0922   0.01558   0.01100  -0.0764  0.3311  0.8441
   7.410   1.1098   0.01481   0.01029  -0.0785  0.3432  0.8439
   7.420   1.1179   0.01448   0.00999  -0.0794  0.3490  0.8438
   7.430   1.0840   0.01613   0.01151  -0.0749  0.3234  0.8449
   7.440   1.0558   0.01748   0.01275  -0.0712  0.3014  0.8458
   7.450   1.0630   0.01720   0.01250  -0.0720  0.3069  0.8459
   7.460   1.1037   0.01537   0.01082  -0.0771  0.3367  0.8449
   7.470   1.0734   0.01682   0.01216  -0.0731  0.3134  0.8459
   7.480   1.0752   0.01679   0.01214  -0.0732  0.3143  0.8461
   7.490   1.1075   0.01535   0.01082  -0.0772  0.3381  0.8454
   7.510   1.0870   0.01641   0.01180  -0.0743  0.3219  0.8462
   7.520   1.0641   0.01752   0.01282  -0.0713  0.3039  0.8471
   7.530   1.0796   0.01685   0.01221  -0.0731  0.3154  0.8468
   7.540   1.1040   0.01578   0.01123  -0.0761  0.3328  0.8464
   7.550   1.0629   0.01773   0.01302  -0.0708  0.3013  0.8476
   7.560   1.0647   0.01771   0.01300  -0.0709  0.3022  0.8478
   7.570   1.0613   0.01791   0.01319  -0.0703  0.2994  0.8480
   7.580   1.0756   0.01731   0.01265  -0.0720  0.3100  0.8478
   7.590   1.0559   0.01827   0.01352  -0.0694  0.2938  0.8486
   7.600   1.0216   0.01991   0.01501  -0.0650  0.2642  0.8495
   7.610   1.0672   0.01785   0.01315  -0.0706  0.3015  0.8486
   7.620   1.0523   0.01860   0.01383  -0.0686  0.2896  0.8492
   7.630   1.1170   0.01566   0.01115  -0.0767  0.3382  0.8476
   7.640   1.0529   0.01867   0.01390  -0.0684  0.2893  0.8495
   7.650   1.0305   0.01977   0.01489  -0.0655  0.2694  0.8502
   7.660   1.0581   0.01854   0.01379  -0.0688  0.2920  0.8497
   7.670   1.0714   0.01798   0.01328  -0.0704  0.3018  0.8495
   7.680   1.0864   0.01735   0.01271  -0.0721  0.3131  0.8494
   7.690   1.0370   0.01968   0.01483  -0.0658  0.2725  0.8507
   7.700   1.0410   0.01955   0.01471  -0.0662  0.2755  0.8508
   7.710   1.0527   0.01906   0.01427  -0.0675  0.2848  0.8506
   7.720   1.0892   0.01743   0.01280  -0.0720  0.3132  0.8500
   7.730   1.0882   0.01753   0.01290  -0.0718  0.3119  0.8501
   7.740   1.0448   0.01959   0.01476  -0.0662  0.2767  0.8513
   7.770   1.0999   0.01720   0.01261  -0.0728  0.3193  0.8506
   7.780   1.0233   0.02080   0.01586  -0.0631  0.2547  0.8524
   7.790   1.0534   0.01946   0.01466  -0.0667  0.2809  0.8519
   7.800   1.0247   0.02084   0.01590  -0.0630  0.2549  0.8528
   7.810   1.0495   0.01974   0.01493  -0.0660  0.2771  0.8524
   7.820   1.0554   0.01952   0.01473  -0.0666  0.2809  0.8523
   7.830   1.0295   0.02078   0.01586  -0.0633  0.2580  0.8532
   7.840   1.0261   0.02099   0.01605  -0.0627  0.2537  0.8533
   7.850   1.0128   0.02168   0.01667  -0.0610  0.2409  0.8537
   7.860   1.0517   0.01991   0.01510  -0.0656  0.2761  0.8531
   7.870   1.0407   0.02047   0.01560  -0.0642  0.2657  0.8535
   7.880   1.0829   0.01857   0.01389  -0.0693  0.3006  0.8526
   7.890   1.0620   0.01958   0.01481  -0.0665  0.2829  0.8533
   7.900   1.0305   0.02111   0.01618  -0.0626  0.2544  0.8542
   7.910   1.0411   0.02066   0.01579  -0.0637  0.2634  0.8542
   7.920   1.0756   0.01911   0.01439  -0.0679  0.2923  0.8534
   7.930   1.0068   0.02240   0.01734  -0.0594  0.2298  0.8551
   7.940   1.0587   0.02000   0.01522  -0.0655  0.2782  0.8542
   7.950   1.0227   0.02175   0.01678  -0.0610  0.2442  0.8551
   7.960   1.0545   0.02030   0.01549  -0.0648  0.2726  0.8546
   7.970   1.1146   0.01758   0.01303  -0.0722  0.3203  0.8533
   7.980   1.0255   0.02178   0.01682  -0.0610  0.2451  0.8557
   7.990   1.0496   0.02069   0.01585  -0.0638  0.2668  0.8552
   8.000   1.0399   0.02120   0.01631  -0.0625  0.2577  0.8558
   8.010   1.0680   0.01995   0.01519  -0.0658  0.2815  0.8552
   8.020   1.0445   0.02109   0.01622  -0.0628  0.2603  0.8560
   8.030   1.0182   0.02239   0.01738  -0.0596  0.2343  0.8566
   8.040   1.0432   0.02126   0.01638  -0.0625  0.2586  0.8563
   8.050   1.0152   0.02265   0.01761  -0.0590  0.2302  0.8571
   8.060   1.0192   0.02251   0.01750  -0.0594  0.2332  0.8571
   8.070   1.0543   0.02090   0.01607  -0.0635  0.2663  0.8565
   8.080   1.0161   0.02277   0.01773  -0.0588  0.2294  0.8574
   8.090   1.0097   0.02314   0.01807  -0.0579  0.2218  0.8579
   8.100   1.0494   0.02129   0.01643  -0.0625  0.2603  0.8571
   8.110   0.9925   0.02412   0.01893  -0.0557  0.2018  0.8585
   8.120   1.0281   0.02242   0.01744  -0.0597  0.2390  0.8579
   8.130   0.9943   0.02415   0.01896  -0.0557  0.2022  0.8588
   8.140   1.0272   0.02257   0.01758  -0.0594  0.2363  0.8583
   8.150   1.0264   0.02266   0.01767  -0.0592  0.2345  0.8585
   8.160   1.0024   0.02392   0.01877  -0.0563  0.2091  0.8593
   8.170   1.0639   0.02099   0.01618  -0.0634  0.2691  0.8579
   8.180   1.0475   0.02182   0.01694  -0.0614  0.2537  0.8586
   8.190   1.0088   0.02377   0.01865  -0.0567  0.2138  0.8595
   8.200   1.0697   0.02087   0.01609  -0.0638  0.2722  0.8583
   8.210   1.0328   0.02269   0.01771  -0.0593  0.2372  0.8595
   8.220   1.0949   0.01981   0.01515  -0.0667  0.2928  0.8580
   8.230   1.0126   0.02381   0.01871  -0.0567  0.2150  0.8603
   8.240   1.0567   0.02172   0.01686  -0.0618  0.2592  0.8593
   8.250   1.0303   0.02304   0.01804  -0.0585  0.2321  0.8602
   8.260   1.0274   0.02324   0.01822  -0.0581  0.2291  0.8603
   8.270   1.0599   0.02173   0.01689  -0.0618  0.2600  0.8598
   8.280   1.0513   0.02220   0.01730  -0.0607  0.2509  0.8602
   8.290   1.0033   0.02465   0.01946  -0.0550  0.1992  0.8614
   8.300   1.0450   0.02261   0.01767  -0.0597  0.2432  0.8605
   8.310   1.0385   0.02297   0.01800  -0.0588  0.2366  0.8608
   8.320   1.0234   0.02379   0.01873  -0.0570  0.2205  0.8615
   8.330   1.0391   0.02306   0.01809  -0.0587  0.2358  0.8611
   8.340   1.0496   0.02261   0.01769  -0.0598  0.2453  0.8612
   8.350   1.0216   0.02406   0.01898  -0.0565  0.2157  0.8620
   8.360   1.0453   0.02293   0.01798  -0.0591  0.2400  0.8615
   8.370   1.0480   0.02285   0.01792  -0.0593  0.2417  0.8618
   8.380   1.0426   0.02318   0.01821  -0.0586  0.2361  0.8619
   8.400   1.0109   0.02491   0.01973  -0.0547  0.1994  0.8630
   8.410   1.0235   0.02431   0.01922  -0.0560  0.2133  0.8628
