  
       XFOIL         Version 6.94
  
 Calculated polar for: 1080                                            
  
 1 1 Reynolds number fixed          Mach number fixed         
  
 xtrf =   1.000 (top)        1.000 (bottom)  
 Mach =   0.000     Re =     2.000 e 6     Ncrit =   9.000
  
  alpha     CL        CD       CDp       CM    Top_Xtr Bot_Xtr
 ------- -------- --------- --------- -------- ------- -------
   6.010   1.3437   0.00890   0.00481  -0.1350  0.5716  0.7850
   6.020   1.3449   0.00891   0.00481  -0.1351  0.5716  0.7850
   6.030   1.3447   0.00891   0.00482  -0.1348  0.5715  0.7851
   6.040   1.3282   0.00894   0.00486  -0.1312  0.5683  0.7853
   6.050   1.3461   0.00892   0.00483  -0.1347  0.5714  0.7851
   6.060   1.3462   0.00893   0.00484  -0.1346  0.5713  0.7851
   6.070   1.3471   0.00893   0.00485  -0.1346  0.5713  0.7852
   6.080   1.3475   0.00894   0.00485  -0.1344  0.5712  0.7852
   6.090   1.3484   0.00894   0.00486  -0.1344  0.5711  0.7852
   6.100   1.3454   0.00895   0.00487  -0.1336  0.5705  0.7853
   6.110   1.3491   0.00895   0.00487  -0.1342  0.5709  0.7853
   6.120   1.3498   0.00895   0.00488  -0.1341  0.5709  0.7853
   6.130   1.3501   0.00896   0.00488  -0.1340  0.5708  0.7853
   6.140   1.3509   0.00896   0.00489  -0.1340  0.5707  0.7853
   6.150   1.3516   0.00897   0.00489  -0.1339  0.5706  0.7854
   6.160   1.3515   0.00897   0.00490  -0.1337  0.5704  0.7854
   6.170   1.3527   0.00898   0.00491  -0.1337  0.5705  0.7854
   6.180   1.3497   0.00899   0.00492  -0.1329  0.5697  0.7855
   6.190   1.3481   0.00899   0.00493  -0.1324  0.5692  0.7855
   6.200   1.3476   0.00900   0.00494  -0.1321  0.5688  0.7856
   6.210   1.3553   0.00899   0.00493  -0.1335  0.5701  0.7855
   6.220   1.3557   0.00900   0.00493  -0.1334  0.5700  0.7855
   6.230   1.3559   0.00900   0.00494  -0.1332  0.5699  0.7856
   6.240   1.3573   0.00901   0.00494  -0.1333  0.5699  0.7856
   6.250   1.3553   0.00902   0.00496  -0.1327  0.5693  0.7856
   6.260   1.3581   0.00902   0.00496  -0.1331  0.5697  0.7856
   6.270   1.3506   0.00904   0.00497  -0.1314  0.5678  0.7858
   6.280   1.3579   0.00903   0.00497  -0.1327  0.5692  0.7857
   6.290   1.3602   0.00903   0.00497  -0.1329  0.5694  0.7857
   6.300   1.3597   0.00904   0.00498  -0.1326  0.5691  0.7857
   6.310   1.3615   0.00904   0.00498  -0.1328  0.5692  0.7858
   6.320   1.3621   0.00905   0.00499  -0.1328  0.5692  0.7858
   6.330   1.3627   0.00905   0.00499  -0.1327  0.5691  0.7858
   6.340   1.3634   0.00906   0.00500  -0.1326  0.5690  0.7858
   6.350   1.3632   0.00906   0.00501  -0.1324  0.5687  0.7859
   6.360   1.3638   0.00907   0.00501  -0.1323  0.5686  0.7859
   6.370   1.3590   0.00908   0.00502  -0.1311  0.5672  0.7860
   6.380   1.3659   0.00907   0.00502  -0.1324  0.5686  0.7859
   6.390   1.3529   0.00914   0.00506  -0.1295  0.5648  0.7861
   6.400   1.3594   0.00910   0.00505  -0.1306  0.5665  0.7861
   6.410   1.3601   0.00911   0.00505  -0.1306  0.5665  0.7861
   6.420   1.3692   0.00909   0.00504  -0.1323  0.5683  0.7860
   6.430   1.3565   0.00918   0.00507  -0.1295  0.5635  0.7862
   6.440   1.3692   0.00910   0.00505  -0.1319  0.5678  0.7861
   6.450   1.3702   0.00911   0.00506  -0.1319  0.5678  0.7861
   6.460   1.3718   0.00911   0.00506  -0.1320  0.5679  0.7861
   6.470   1.3686   0.00913   0.00507  -0.1312  0.5669  0.7862
   6.480   1.3605   0.00921   0.00511  -0.1294  0.5633  0.7863
   6.490   1.3734   0.00913   0.00508  -0.1318  0.5675  0.7862
   6.500   1.3742   0.00913   0.00508  -0.1317  0.5675  0.7862
   6.510   1.3678   0.00917   0.00511  -0.1302  0.5656  0.7863
   6.520   1.3746   0.00914   0.00509  -0.1314  0.5671  0.7863
   6.530   1.3612   0.00925   0.00517  -0.1286  0.5626  0.7864
   6.540   1.3655   0.00924   0.00515  -0.1292  0.5632  0.7864
   6.550   1.3635   0.00926   0.00518  -0.1286  0.5626  0.7865
   6.560   1.3783   0.00916   0.00511  -0.1314  0.5670  0.7863
   6.570   1.3798   0.00916   0.00512  -0.1315  0.5670  0.7864
   6.580   1.3802   0.00917   0.00512  -0.1314  0.5669  0.7864
   6.590   1.3673   0.00928   0.00520  -0.1286  0.5625  0.7866
   6.600   1.3750   0.00923   0.00515  -0.1300  0.5647  0.7865
   6.610   1.3780   0.00921   0.00516  -0.1304  0.5656  0.7865
   6.620   1.3760   0.00926   0.00516  -0.1298  0.5634  0.7865
   6.630   1.3778   0.00925   0.00517  -0.1300  0.5643  0.7866
   6.640   1.3684   0.00933   0.00527  -0.1279  0.5616  0.7867
   6.650   1.3810   0.00924   0.00518  -0.1303  0.5651  0.7866
   6.660   1.3723   0.00933   0.00526  -0.1283  0.5621  0.7867
   6.670   1.3860   0.00923   0.00518  -0.1309  0.5660  0.7866
   6.680   1.3703   0.00936   0.00531  -0.1276  0.5609  0.7868
   6.690   1.3840   0.00928   0.00519  -0.1301  0.5637  0.7867
   6.700   1.3861   0.00926   0.00520  -0.1303  0.5649  0.7867
   6.710   1.3739   0.00937   0.00532  -0.1277  0.5611  0.7868
   6.720   1.3874   0.00928   0.00521  -0.1302  0.5644  0.7867
   6.730   1.3915   0.00926   0.00521  -0.1309  0.5658  0.7867
   6.740   1.3778   0.00938   0.00532  -0.1280  0.5614  0.7869
   6.750   1.3863   0.00933   0.00526  -0.1294  0.5629  0.7868
   6.760   1.3765   0.00941   0.00537  -0.1273  0.5603  0.7869
   6.770   1.3776   0.00942   0.00537  -0.1274  0.5603  0.7870
   6.780   1.3880   0.00935   0.00529  -0.1292  0.5627  0.7869
   6.790   1.3961   0.00929   0.00524  -0.1306  0.5652  0.7868
   6.800   1.3966   0.00930   0.00525  -0.1306  0.5649  0.7868
   6.810   1.3828   0.00943   0.00538  -0.1276  0.5607  0.7870
   6.820   1.3839   0.00943   0.00539  -0.1277  0.5607  0.7870
   6.830   1.3847   0.00944   0.00539  -0.1277  0.5607  0.7870
   6.840   1.3830   0.00946   0.00542  -0.1271  0.5597  0.7871
   6.850   1.3863   0.00945   0.00541  -0.1276  0.5605  0.7871
   6.860   1.4022   0.00934   0.00528  -0.1306  0.5643  0.7869
   6.870   1.3882   0.00946   0.00542  -0.1276  0.5605  0.7871
   6.880   1.3924   0.00944   0.00540  -0.1282  0.5614  0.7871
   6.890   1.3935   0.00945   0.00540  -0.1283  0.5614  0.7871
   6.900   1.3912   0.00948   0.00543  -0.1276  0.5605  0.7872
   6.910   1.3907   0.00949   0.00545  -0.1274  0.5599  0.7872
   6.920   1.3911   0.00950   0.00546  -0.1272  0.5597  0.7872
   6.930   1.3926   0.00950   0.00546  -0.1274  0.5599  0.7872
   6.940   1.4019   0.00944   0.00539  -0.1290  0.5622  0.7872
   6.950   1.3998   0.00947   0.00543  -0.1284  0.5615  0.7872
   6.960   1.3939   0.00953   0.00549  -0.1271  0.5592  0.7873
   6.970   1.3960   0.00953   0.00550  -0.1273  0.5596  0.7873
   6.980   1.3987   0.00952   0.00549  -0.1277  0.5603  0.7873
   6.990   1.3992   0.00953   0.00550  -0.1276  0.5601  0.7873
   7.000   1.3970   0.00956   0.00553  -0.1270  0.5589  0.7874
   7.010   1.3976   0.00957   0.00554  -0.1269  0.5588  0.7874
   7.020   1.4014   0.00955   0.00552  -0.1274  0.5598  0.7874
   7.030   1.4007   0.00957   0.00554  -0.1271  0.5592  0.7874
   7.040   1.4116   0.00949   0.00546  -0.1291  0.5621  0.7873
   7.050   1.4083   0.00953   0.00551  -0.1282  0.5610  0.7874
   7.060   1.4126   0.00951   0.00548  -0.1289  0.5618  0.7874
   7.070   1.4044   0.00959   0.00557  -0.1271  0.5591  0.7875
   7.080   1.4079   0.00957   0.00555  -0.1276  0.5599  0.7875
   7.090   1.4079   0.00959   0.00557  -0.1275  0.5596  0.7875
   7.100   1.4076   0.00960   0.00558  -0.1272  0.5592  0.7875
   7.110   1.4113   0.00958   0.00557  -0.1277  0.5600  0.7875
   7.120   1.4081   0.00963   0.00561  -0.1269  0.5586  0.7875
   7.130   1.4129   0.00960   0.00558  -0.1277  0.5599  0.7875
   7.140   1.4094   0.00964   0.00563  -0.1268  0.5584  0.7876
   7.150   1.4080   0.00967   0.00565  -0.1264  0.5576  0.7876
   7.160   1.4113   0.00965   0.00564  -0.1268  0.5584  0.7876
   7.170   1.4143   0.00964   0.00563  -0.1272  0.5591  0.7876
   7.180   1.4157   0.00964   0.00563  -0.1273  0.5592  0.7876
   7.190   1.4243   0.00958   0.00557  -0.1288  0.5615  0.7876
   7.200   1.4161   0.00967   0.00565  -0.1270  0.5587  0.7877
   7.210   1.4169   0.00967   0.00566  -0.1270  0.5586  0.7877
   7.220   1.4172   0.00968   0.00568  -0.1269  0.5584  0.7877
   7.230   1.4166   0.00971   0.00570  -0.1266  0.5578  0.7877
   7.240   1.4168   0.00972   0.00571  -0.1265  0.5575  0.7877
   7.250   1.4251   0.00965   0.00565  -0.1279  0.5599  0.7877
   7.260   1.4169   0.00976   0.00574  -0.1261  0.5569  0.7878
   7.270   1.4201   0.00973   0.00572  -0.1266  0.5577  0.7878
   7.280   1.4228   0.00972   0.00571  -0.1269  0.5582  0.7878
   7.290   1.4224   0.00974   0.00573  -0.1266  0.5578  0.7878
   7.300   1.4204   0.00978   0.00577  -0.1261  0.5567  0.7878
   7.310   1.4236   0.00976   0.00575  -0.1265  0.5575  0.7878
   7.320   1.4187   0.00985   0.00582  -0.1254  0.5552  0.7879
   7.330   1.4222   0.00981   0.00579  -0.1259  0.5563  0.7879
   7.340   1.4241   0.00981   0.00579  -0.1261  0.5566  0.7879
   7.350   1.4290   0.00976   0.00576  -0.1268  0.5580  0.7879
   7.360   1.4284   0.00979   0.00578  -0.1266  0.5575  0.7879
   7.370   1.4329   0.00975   0.00576  -0.1272  0.5586  0.7879
   7.390   1.4268   0.00986   0.00584  -0.1257  0.5558  0.7880
   7.400   1.4280   0.00986   0.00585  -0.1258  0.5559  0.7880
   7.410   1.4290   0.00987   0.00585  -0.1258  0.5559  0.7881
   7.420   1.4283   0.00990   0.00587  -0.1255  0.5551  0.7881
   7.430   1.4319   0.00986   0.00585  -0.1260  0.5562  0.7881
   7.440   1.4341   0.00985   0.00585  -0.1262  0.5567  0.7881
   7.450   1.4354   0.00985   0.00585  -0.1263  0.5568  0.7882
   7.460   1.4342   0.00989   0.00588  -0.1259  0.5560  0.7882
   7.470   1.4326   0.00994   0.00591  -0.1254  0.5548  0.7883
   7.480   1.4325   0.00996   0.00593  -0.1252  0.5543  0.7883
   7.490   1.4311   0.00999   0.00597  -0.1248  0.5536  0.7884
   7.500   1.4377   0.00991   0.00590  -0.1259  0.5558  0.7884
   7.510   1.4320   0.01001   0.00600  -0.1246  0.5531  0.7885
   7.520   1.4377   0.00996   0.00594  -0.1255  0.5549  0.7884
   7.530   1.4414   0.00991   0.00591  -0.1260  0.5561  0.7884
   7.540   1.4380   0.00999   0.00597  -0.1252  0.5542  0.7885
   7.550   1.4384   0.01000   0.00599  -0.1251  0.5541  0.7886
   7.560   1.4414   0.00998   0.00596  -0.1255  0.5548  0.7886
   7.570   1.4406   0.01001   0.00600  -0.1252  0.5541  0.7886
   7.580   1.4415   0.01002   0.00600  -0.1252  0.5542  0.7886
   7.590   1.4445   0.00999   0.00598  -0.1256  0.5550  0.7886
   7.600   1.4446   0.01001   0.00599  -0.1254  0.5544  0.7887
   7.610   1.4488   0.00996   0.00597  -0.1260  0.5559  0.7887
   7.620   1.4419   0.01008   0.00609  -0.1246  0.5528  0.7888
   7.630   1.4479   0.01002   0.00601  -0.1255  0.5545  0.7888
   7.640   1.4430   0.01010   0.00611  -0.1244  0.5524  0.7889
   7.650   1.4454   0.01009   0.00609  -0.1247  0.5531  0.7889
   7.660   1.4479   0.01007   0.00608  -0.1250  0.5537  0.7889
   7.670   1.4506   0.01005   0.00605  -0.1253  0.5542  0.7889
   7.680   1.4483   0.01010   0.00611  -0.1247  0.5531  0.7890
   7.690   1.4526   0.01006   0.00606  -0.1254  0.5542  0.7889
   7.700   1.4500   0.01012   0.00613  -0.1247  0.5530  0.7890
   7.710   1.4483   0.01015   0.00618  -0.1242  0.5516  0.7891
   7.720   1.4511   0.01014   0.00616  -0.1246  0.5527  0.7891
   7.730   1.4519   0.01014   0.00617  -0.1246  0.5526  0.7891
   7.740   1.4554   0.01012   0.00613  -0.1250  0.5537  0.7891
   7.750   1.4552   0.01014   0.00616  -0.1248  0.5532  0.7891
   7.760   1.4583   0.01011   0.00612  -0.1252  0.5540  0.7892
   7.770   1.4540   0.01019   0.00622  -0.1242  0.5516  0.7892
   7.780   1.4539   0.01021   0.00624  -0.1241  0.5510  0.7893
   7.790   1.4602   0.01014   0.00616  -0.1251  0.5536  0.7892
   7.800   1.4567   0.01021   0.00624  -0.1242  0.5516  0.7893
   7.810   1.4579   0.01021   0.00625  -0.1243  0.5517  0.7893
   7.820   1.4583   0.01022   0.00626  -0.1242  0.5514  0.7894
   7.830   1.4647   0.01015   0.00618  -0.1252  0.5538  0.7893
   7.840   1.4596   0.01024   0.00628  -0.1241  0.5510  0.7894
   7.850   1.4621   0.01022   0.00627  -0.1244  0.5519  0.7894
   7.860   1.4608   0.01026   0.00631  -0.1240  0.5506  0.7895
   7.870   1.4638   0.01024   0.00628  -0.1244  0.5518  0.7895
   7.880   1.4621   0.01028   0.00633  -0.1239  0.5503  0.7895
   7.890   1.4651   0.01026   0.00631  -0.1243  0.5515  0.7895
   7.900   1.4649   0.01028   0.00633  -0.1241  0.5508  0.7896
   7.910   1.4667   0.01027   0.00632  -0.1242  0.5513  0.7896
   7.920   1.4659   0.01030   0.00636  -0.1239  0.5503  0.7896
   7.930   1.4701   0.01026   0.00632  -0.1245  0.5521  0.7896
   7.940   1.4666   0.01034   0.00639  -0.1237  0.5497  0.7897
   7.950   1.4680   0.01033   0.00639  -0.1238  0.5500  0.7897
   7.960   1.4669   0.01037   0.00643  -0.1234  0.5490  0.7898
   7.970   1.4693   0.01036   0.00642  -0.1237  0.5497  0.7898
   7.980   1.4726   0.01032   0.00639  -0.1241  0.5509  0.7898
   7.990   1.4723   0.01035   0.00641  -0.1239  0.5503  0.7898
   8.000   1.4728   0.01036   0.00643  -0.1238  0.5500  0.7898
   8.010   1.4748   0.01035   0.00642  -0.1240  0.5506  0.7898
   8.020   1.4638   0.01060   0.00662  -0.1218  0.5455  0.7900
   8.030   1.4730   0.01042   0.00649  -0.1234  0.5488  0.7899
   8.040   1.4730   0.01045   0.00651  -0.1232  0.5484  0.7900
   8.050   1.4540   0.01090   0.00690  -0.1196  0.5360  0.7902
   8.060   1.4756   0.01045   0.00652  -0.1233  0.5487  0.7900
   8.070   1.4774   0.01044   0.00651  -0.1235  0.5492  0.7900
   8.080   1.4776   0.01046   0.00653  -0.1234  0.5488  0.7900
   8.090   1.4701   0.01064   0.00668  -0.1218  0.5453  0.7902
   8.100   1.4712   0.01064   0.00668  -0.1219  0.5455  0.7902
   8.110   1.4700   0.01069   0.00674  -0.1215  0.5424  0.7902
   8.120   1.4733   0.01065   0.00669  -0.1219  0.5457  0.7902
   8.130   1.4697   0.01075   0.00680  -0.1211  0.5407  0.7903
   8.140   1.4748   0.01067   0.00671  -0.1218  0.5454  0.7903
   8.150   1.4836   0.01051   0.00659  -0.1233  0.5486  0.7902
   8.160   1.4861   0.01049   0.00657  -0.1236  0.5493  0.7902
   8.170   1.4774   0.01069   0.00674  -0.1218  0.5452  0.7904
   8.180   1.4791   0.01068   0.00674  -0.1220  0.5457  0.7904
   8.190   1.4846   0.01059   0.00666  -0.1228  0.5475  0.7903
   8.200   1.4704   0.01093   0.00697  -0.1201  0.5379  0.7905
   8.210   1.4825   0.01069   0.00675  -0.1221  0.5460  0.7904
   8.220   1.4792   0.01078   0.00685  -0.1213  0.5419  0.7905
   8.230   1.4835   0.01072   0.00678  -0.1219  0.5457  0.7905
   8.240   1.4806   0.01080   0.00687  -0.1213  0.5416  0.7906
   8.250   1.4822   0.01080   0.00687  -0.1214  0.5422  0.7906
   8.260   1.4852   0.01076   0.00682  -0.1218  0.5448  0.7906
   8.270   1.4818   0.01086   0.00693  -0.1210  0.5406  0.7906
   8.280   1.4790   0.01096   0.00701  -0.1203  0.5386  0.7907
   8.290   1.4904   0.01073   0.00680  -0.1222  0.5462  0.7906
   8.300   1.4955   0.01065   0.00674  -0.1230  0.5478  0.7906
   8.310   1.4770   0.01110   0.00714  -0.1195  0.5357  0.7908
   8.320   1.4776   0.01111   0.00715  -0.1194  0.5350  0.7908
   8.330   1.4716   0.01131   0.00733  -0.1182  0.5295  0.7909
   8.340   1.4914   0.01084   0.00692  -0.1216  0.5436  0.7908
   8.350   1.4919   0.01085   0.00694  -0.1215  0.5431  0.7908
   8.360   1.4818   0.01113   0.00717  -0.1195  0.5369  0.7909
   8.370   1.4932   0.01088   0.00696  -0.1214  0.5426  0.7908
   8.380   1.4882   0.01102   0.00709  -0.1203  0.5387  0.7909
   8.390   1.4820   0.01121   0.00726  -0.1191  0.5327  0.7910
   8.400   1.4849   0.01117   0.00722  -0.1194  0.5354  0.7910
   8.410   1.4742   0.01150   0.00751  -0.1174  0.5265  0.7912
   8.420   1.4985   0.01090   0.00699  -0.1215  0.5436  0.7910
   8.430   1.4845   0.01127   0.00732  -0.1189  0.5320  0.7911
   8.440   1.4863   0.01126   0.00731  -0.1191  0.5327  0.7911
   8.450   1.4978   0.01099   0.00709  -0.1209  0.5406  0.7911
   8.460   1.4910   0.01120   0.00726  -0.1196  0.5370  0.7911
   8.470   1.4771   0.01162   0.00763  -0.1170  0.5237  0.7913
   8.480   1.4965   0.01111   0.00719  -0.1202  0.5385  0.7912
   8.490   1.4903   0.01130   0.00737  -0.1190  0.5325  0.7912
   8.500   1.4949   0.01122   0.00729  -0.1196  0.5371  0.7912
   8.510   1.4826   0.01159   0.00762  -0.1173  0.5261  0.7914
   8.520   1.4843   0.01157   0.00761  -0.1174  0.5277  0.7914
   8.530   1.4943   0.01132   0.00740  -0.1190  0.5330  0.7913
   8.540   1.4957   0.01132   0.00739  -0.1191  0.5335  0.7914
   8.550   1.4980   0.01129   0.00737  -0.1194  0.5359  0.7914
   8.560   1.4987   0.01130   0.00738  -0.1193  0.5354  0.7914
   8.570   1.4881   0.01163   0.00767  -0.1173  0.5266  0.7915
   8.580   1.4895   0.01162   0.00767  -0.1174  0.5280  0.7915
   8.590   1.4680   0.01233   0.00828  -0.1136  0.5106  0.7917
   8.600   1.4904   0.01167   0.00771  -0.1172  0.5260  0.7916
   8.610   1.4946   0.01158   0.00764  -0.1178  0.5290  0.7916
   8.620   1.4930   0.01166   0.00771  -0.1174  0.5277  0.7916
   8.630   1.5009   0.01146   0.00754  -0.1186  0.5315  0.7916
   8.640   1.4757   0.01226   0.00824  -0.1141  0.5125  0.7919
   8.650   1.4854   0.01199   0.00801  -0.1156  0.5197  0.7918
   8.660   1.4829   0.01210   0.00811  -0.1150  0.5164  0.7918
   8.670   1.4980   0.01168   0.00774  -0.1175  0.5284  0.7917
   8.680   1.4910   0.01193   0.00796  -0.1161  0.5211  0.7918
   8.690   1.4724   0.01255   0.00851  -0.1128  0.5067  0.7920
   8.700   1.4843   0.01221   0.00821  -0.1147  0.5147  0.7920
   8.710   1.4843   0.01224   0.00825  -0.1145  0.5140  0.7920
   8.720   1.4787   0.01246   0.00844  -0.1134  0.5102  0.7921
   8.730   1.4851   0.01229   0.00829  -0.1143  0.5135  0.7920
   8.740   1.4724   0.01274   0.00870  -0.1121  0.5040  0.7922
   8.750   1.4915   0.01216   0.00818  -0.1151  0.5176  0.7921
   8.760   1.4575   0.01334   0.00923  -0.1093  0.4936  0.7924
   8.770   1.4920   0.01222   0.00824  -0.1149  0.5162  0.7921
   8.780   1.4870   0.01242   0.00842  -0.1139  0.5121  0.7922
   8.790   1.4947   0.01220   0.00823  -0.1151  0.5173  0.7921
   8.800   1.4886   0.01244   0.00844  -0.1139  0.5121  0.7922
   8.810   1.5065   0.01191   0.00798  -0.1168  0.5240  0.7921
   8.820   1.4733   0.01302   0.00897  -0.1110  0.5008  0.7924
   8.830   1.4951   0.01234   0.00836  -0.1145  0.5145  0.7923
   8.840   1.5025   0.01214   0.00819  -0.1156  0.5203  0.7923
   8.850   1.4905   0.01256   0.00856  -0.1135  0.5111  0.7924
   8.860   1.5020   0.01223   0.00827  -0.1152  0.5191  0.7923
   8.870   1.4802   0.01299   0.00895  -0.1114  0.5027  0.7925
   8.880   1.5034   0.01225   0.00830  -0.1152  0.5189  0.7924
   8.890   1.4363   0.01466   0.01048  -0.1040  0.4750  0.7929
   8.900   1.4895   0.01278   0.00878  -0.1125  0.5067  0.7926
   8.910   1.5066   0.01226   0.00832  -0.1153  0.5196  0.7924
   8.920   1.4962   0.01263   0.00865  -0.1134  0.5111  0.7926
   8.930   1.4971   0.01264   0.00866  -0.1134  0.5111  0.7926
   8.940   1.4981   0.01265   0.00867  -0.1134  0.5111  0.7926
   8.950   1.4930   0.01286   0.00886  -0.1124  0.5062  0.7927
   8.960   1.4843   0.01320   0.00916  -0.1108  0.5002  0.7928
   8.970   1.4155   0.01585   0.01160  -0.0997  0.4609  0.7933
   8.980   1.4871   0.01318   0.00915  -0.1109  0.5012  0.7928
   8.990   1.4828   0.01337   0.00933  -0.1101  0.4972  0.7929
   9.000   1.5110   0.01245   0.00851  -0.1147  0.5158  0.7927
   9.010   1.5143   0.01238   0.00845  -0.1151  0.5189  0.7927
   9.020   1.4833   0.01347   0.00942  -0.1097  0.4960  0.7930
   9.030   1.4427   0.01503   0.01086  -0.1031  0.4724  0.7933
   9.040   1.5010   0.01294   0.00895  -0.1124  0.5067  0.7929
   9.050   1.4521   0.01475   0.01061  -0.1043  0.4770  0.7933
   9.060   1.5010   0.01301   0.00903  -0.1121  0.5056  0.7930
   9.070   1.4595   0.01455   0.01043  -0.1052  0.4798  0.7933
   9.080   1.5031   0.01301   0.00903  -0.1122  0.5060  0.7930
   9.090   1.4870   0.01362   0.00958  -0.1093  0.4952  0.7932
   9.100   1.5028   0.01311   0.00912  -0.1118  0.5046  0.7931
   9.110   1.4561   0.01486   0.01072  -0.1041  0.4768  0.7935
   9.120   1.4373   0.01565   0.01146  -0.1010  0.4663  0.7937
   9.130   1.4398   0.01560   0.01141  -0.1013  0.4673  0.7937
   9.140   1.4812   0.01404   0.00998  -0.1077  0.4891  0.7934
   9.150   1.4503   0.01526   0.01110  -0.1026  0.4714  0.7937
   9.160   1.4548   0.01513   0.01099  -0.1032  0.4736  0.7937
   9.170   1.4388   0.01582   0.01163  -0.1006  0.4652  0.7938
   9.180   1.4929   0.01378   0.00975  -0.1090  0.4946  0.7934
   9.190   1.4775   0.01439   0.01031  -0.1064  0.4849  0.7936
   9.200   1.4229   0.01664   0.01240  -0.0978  0.4563  0.7940
   9.210   1.4431   0.01584   0.01166  -0.1007  0.4659  0.7939
   9.220   1.4527   0.01548   0.01133  -0.1021  0.4700  0.7939
   9.230   1.4724   0.01475   0.01066  -0.1050  0.4802  0.7937
   9.240   1.4949   0.01395   0.00992  -0.1085  0.4933  0.7936
   9.250   1.4258   0.01676   0.01253  -0.0975  0.4560  0.7941
   9.260   1.4885   0.01427   0.01022  -0.1072  0.4877  0.7937
   9.270   1.4743   0.01486   0.01077  -0.1048  0.4795  0.7939
   9.280   1.4626   0.01536   0.01123  -0.1028  0.4727  0.7940
   9.290   1.4829   0.01461   0.01054  -0.1059  0.4837  0.7938
   9.300   1.4532   0.01584   0.01168  -0.1011  0.4679  0.7941
   9.310   1.4385   0.01650   0.01230  -0.0987  0.4599  0.7942
   9.320   1.4667   0.01538   0.01126  -0.1029  0.4734  0.7941
   9.330   1.4067   0.01801   0.01373  -0.0937  0.4446  0.7945
   9.340   1.4817   0.01488   0.01080  -0.1050  0.4806  0.7940
   9.350   1.4521   0.01612   0.01195  -0.1002  0.4650  0.7943
   9.360   1.4617   0.01577   0.01163  -0.1016  0.4695  0.7942
   9.370   1.4674   0.01558   0.01146  -0.1023  0.4718  0.7942
   9.380   1.4395   0.01680   0.01260  -0.0979  0.4583  0.7945
   9.390   1.4525   0.01629   0.01212  -0.0998  0.4636  0.7944
   9.400   1.4400   0.01687   0.01268  -0.0978  0.4578  0.7945
   9.410   1.4451   0.01670   0.01252  -0.0984  0.4597  0.7945
   9.420   1.3995   0.01882   0.01453  -0.0916  0.4386  0.7948
   9.430   1.4793   0.01537   0.01128  -0.1034  0.4759  0.7943
   9.440   1.4278   0.01761   0.01338  -0.0954  0.4507  0.7947
   9.450   1.4526   0.01657   0.01241  -0.0990  0.4616  0.7946
   9.460   1.4334   0.01746   0.01325  -0.0960  0.4522  0.7948
   9.470   1.4429   0.01709   0.01290  -0.0973  0.4566  0.7947
   9.480   1.4432   0.01713   0.01294  -0.0972  0.4565  0.7947
   9.490   1.4221   0.01813   0.01389  -0.0940  0.4465  0.7949
   9.500   1.4444   0.01718   0.01299  -0.0971  0.4563  0.7948
   9.510   1.4094   0.01883   0.01456  -0.0919  0.4405  0.7951
   9.520   1.4533   0.01688   0.01272  -0.0982  0.4599  0.7948
   9.530   1.4068   0.01907   0.01479  -0.0913  0.4388  0.7951
   9.540   1.4191   0.01853   0.01429  -0.0929  0.4434  0.7951
   9.550   1.4250   0.01831   0.01408  -0.0936  0.4458  0.7951
   9.560   1.3876   0.02018   0.01586  -0.0882  0.4296  0.7954
   9.570   1.4039   0.01943   0.01515  -0.0904  0.4360  0.7953
   9.580   1.4127   0.01906   0.01479  -0.0915  0.4399  0.7953
   9.590   1.4235   0.01859   0.01435  -0.0930  0.4438  0.7952
   9.600   1.3505   0.02237   0.01798  -0.0828  0.4124  0.7957
   9.610   1.4823   0.01608   0.01200  -0.1014  0.4703  0.7949
   9.620   1.4220   0.01882   0.01459  -0.0924  0.4425  0.7953
   9.630   1.3829   0.02082   0.01650  -0.0868  0.4253  0.7956
   9.640   1.4359   0.01828   0.01407  -0.0941  0.4481  0.7953
   9.650   1.4189   0.01914   0.01489  -0.0916  0.4407  0.7954
   9.660   1.4116   0.01955   0.01528  -0.0904  0.4368  0.7955
   9.670   1.4205   0.01917   0.01492  -0.0916  0.4408  0.7955
   9.680   1.3131   0.02501   0.02053  -0.0772  0.3940  0.7961
   9.690   1.4430   0.01821   0.01402  -0.0946  0.4499  0.7954
   9.700   1.3944   0.02064   0.01634  -0.0876  0.4283  0.7957
   9.710   1.3858   0.02114   0.01683  -0.0863  0.4246  0.7958
   9.720   1.3838   0.02131   0.01699  -0.0859  0.4236  0.7958
   9.730   1.4500   0.01809   0.01392  -0.0951  0.4515  0.7955
