  
       XFOIL         Version 6.94
  
 Calculated polar for: 1080                                            
  
 1 1 Reynolds number fixed          Mach number fixed         
  
 xtrf =   1.000 (top)        1.000 (bottom)  
 Mach =   0.000     Re =     2.000 e 6     Ncrit =   9.000
  
  alpha     CL        CD       CDp       CM    Top_Xtr Bot_Xtr
 ------- -------- --------- --------- -------- ------- -------
   6.000   1.4582   0.01024   0.00513  -0.1134  0.3295  0.7503
   6.010   1.4592   0.01024   0.00514  -0.1134  0.3295  0.7504
   6.020   1.4602   0.01025   0.00514  -0.1134  0.3293  0.7505
   6.030   1.4607   0.01027   0.00516  -0.1133  0.3285  0.7505
   6.040   1.4616   0.01028   0.00517  -0.1133  0.3283  0.7506
   6.050   1.4624   0.01030   0.00518  -0.1133  0.3279  0.7507
   6.060   1.4639   0.01028   0.00518  -0.1133  0.3287  0.7507
   6.070   1.4642   0.01032   0.00520  -0.1132  0.3276  0.7508
   6.080   1.4654   0.01032   0.00521  -0.1132  0.3278  0.7508
   6.090   1.4660   0.01034   0.00523  -0.1132  0.3272  0.7509
   6.100   1.4672   0.01033   0.00522  -0.1132  0.3276  0.7510
   6.110   1.4677   0.01036   0.00524  -0.1131  0.3269  0.7510
   6.120   1.4690   0.01036   0.00524  -0.1132  0.3272  0.7511
   6.130   1.4696   0.01038   0.00526  -0.1131  0.3266  0.7512
   6.140   1.4709   0.01037   0.00526  -0.1131  0.3270  0.7512
   6.150   1.4715   0.01039   0.00528  -0.1131  0.3265  0.7513
   6.160   1.4725   0.01040   0.00528  -0.1131  0.3264  0.7513
   6.170   1.4739   0.01039   0.00528  -0.1131  0.3269  0.7514
   6.180   1.4734   0.01046   0.00533  -0.1129  0.3251  0.7515
   6.190   1.4747   0.01045   0.00532  -0.1129  0.3254  0.7516
   6.200   1.4759   0.01045   0.00532  -0.1129  0.3257  0.7516
   6.210   1.4764   0.01047   0.00535  -0.1129  0.3251  0.7517
   6.220   1.4772   0.01049   0.00536  -0.1128  0.3247  0.7517
   6.260   1.4812   0.01051   0.00538  -0.1128  0.3244  0.7520
   6.270   1.4822   0.01051   0.00539  -0.1128  0.3245  0.7521
   6.280   1.4832   0.01052   0.00539  -0.1128  0.3243  0.7521
   6.290   1.4842   0.01052   0.00540  -0.1128  0.3241  0.7522
   6.300   1.4852   0.01053   0.00541  -0.1128  0.3241  0.7523
   6.310   1.4862   0.01053   0.00541  -0.1128  0.3239  0.7523
   6.320   1.4872   0.01054   0.00542  -0.1128  0.3237  0.7524
   6.330   1.4883   0.01054   0.00542  -0.1128  0.3244  0.7524
   6.340   1.4891   0.01056   0.00544  -0.1128  0.3232  0.7525
   6.350   1.4902   0.01056   0.00544  -0.1128  0.3235  0.7526
   6.360   1.4909   0.01058   0.00545  -0.1127  0.3226  0.7526
   6.370   1.4923   0.01056   0.00545  -0.1128  0.3239  0.7527
   6.380   1.4933   0.01057   0.00545  -0.1128  0.3240  0.7528
   6.390   1.4938   0.01059   0.00547  -0.1127  0.3224  0.7528
   6.400   1.4949   0.01060   0.00548  -0.1127  0.3224  0.7529
   6.410   1.4957   0.01061   0.00549  -0.1127  0.3221  0.7530
   6.420   1.4967   0.01062   0.00549  -0.1127  0.3220  0.7530
   6.430   1.4978   0.01061   0.00550  -0.1127  0.3223  0.7531
   6.440   1.4984   0.01064   0.00551  -0.1126  0.3214  0.7532
   6.450   1.4995   0.01064   0.00552  -0.1126  0.3215  0.7532
   6.460   1.5005   0.01064   0.00552  -0.1126  0.3215  0.7533
   6.470   1.5015   0.01065   0.00553  -0.1126  0.3214  0.7534
   6.480   1.5021   0.01067   0.00555  -0.1125  0.3207  0.7534
   6.490   1.5031   0.01067   0.00555  -0.1125  0.3208  0.7535
   6.500   1.5041   0.01068   0.00556  -0.1125  0.3208  0.7536
   6.510   1.5051   0.01069   0.00556  -0.1125  0.3206  0.7537
   6.520   1.5061   0.01069   0.00557  -0.1125  0.3208  0.7537
   6.530   1.5068   0.01071   0.00558  -0.1125  0.3202  0.7538
   6.540   1.5078   0.01072   0.00559  -0.1125  0.3202  0.7538
   6.550   1.5088   0.01072   0.00559  -0.1125  0.3202  0.7539
   6.560   1.5097   0.01073   0.00560  -0.1124  0.3201  0.7540
   6.570   1.5105   0.01074   0.00561  -0.1124  0.3198  0.7541
   6.580   1.5117   0.01074   0.00561  -0.1124  0.3201  0.7541
   6.590   1.5123   0.01076   0.00563  -0.1124  0.3195  0.7542
   6.600   1.5138   0.01074   0.00562  -0.1124  0.3202  0.7543
   6.610   1.5140   0.01078   0.00565  -0.1123  0.3192  0.7543
   6.620   1.5151   0.01078   0.00565  -0.1123  0.3193  0.7544
   6.630   1.5163   0.01078   0.00566  -0.1123  0.3195  0.7545
   6.640   1.5169   0.01080   0.00567  -0.1123  0.3190  0.7545
   6.650   1.5175   0.01082   0.00569  -0.1122  0.3186  0.7546
   6.660   1.5187   0.01082   0.00569  -0.1122  0.3188  0.7547
   6.670   1.5195   0.01083   0.00570  -0.1122  0.3186  0.7547
   6.680   1.5204   0.01084   0.00571  -0.1122  0.3184  0.7548
   6.690   1.5214   0.01084   0.00571  -0.1122  0.3185  0.7549
   6.700   1.5224   0.01085   0.00572  -0.1122  0.3185  0.7550
   6.710   1.5228   0.01087   0.00574  -0.1121  0.3180  0.7550
   6.720   1.5237   0.01088   0.00575  -0.1121  0.3179  0.7551
   6.730   1.5248   0.01088   0.00575  -0.1121  0.3180  0.7552
   6.740   1.5258   0.01089   0.00576  -0.1121  0.3179  0.7553
   6.750   1.5264   0.01091   0.00578  -0.1120  0.3176  0.7553
   6.760   1.5274   0.01091   0.00578  -0.1120  0.3176  0.7554
   6.770   1.5280   0.01093   0.00579  -0.1119  0.3173  0.7555
   6.780   1.5291   0.01093   0.00580  -0.1119  0.3174  0.7555
   6.790   1.5299   0.01094   0.00581  -0.1119  0.3173  0.7556
   6.800   1.5301   0.01097   0.00583  -0.1118  0.3166  0.7557
   6.810   1.5318   0.01095   0.00582  -0.1119  0.3172  0.7558
   6.820   1.5321   0.01098   0.00584  -0.1117  0.3167  0.7558
   6.830   1.5331   0.01098   0.00585  -0.1117  0.3167  0.7559
   6.840   1.5337   0.01100   0.00586  -0.1117  0.3164  0.7560
   6.850   1.5341   0.01102   0.00588  -0.1115  0.3160  0.7561
   6.860   1.5353   0.01102   0.00588  -0.1116  0.3163  0.7561
   6.870   1.5362   0.01102   0.00588  -0.1116  0.3162  0.7562
   6.880   1.5367   0.01104   0.00590  -0.1115  0.3159  0.7563
   6.890   1.5372   0.01106   0.00592  -0.1114  0.3142  0.7564
   6.900   1.5384   0.01106   0.00591  -0.1114  0.3157  0.7564
   6.910   1.5393   0.01106   0.00592  -0.1114  0.3152  0.7565
   6.920   1.5399   0.01108   0.00593  -0.1113  0.3142  0.7566
   6.930   1.5411   0.01107   0.00593  -0.1114  0.3156  0.7567
   6.940   1.5420   0.01108   0.00594  -0.1113  0.3152  0.7567
   6.950   1.5395   0.01119   0.00601  -0.1107  0.3100  0.7569
   6.960   1.5437   0.01109   0.00595  -0.1113  0.3148  0.7569
   6.970   1.5447   0.01110   0.00596  -0.1113  0.3150  0.7570
   6.980   1.5457   0.01110   0.00596  -0.1112  0.3152  0.7570
   6.990   1.5465   0.01111   0.00597  -0.1112  0.3151  0.7571
   7.000   1.5473   0.01112   0.00598  -0.1112  0.3145  0.7572
   7.010   1.5480   0.01113   0.00599  -0.1111  0.3141  0.7572
   7.020   1.5491   0.01113   0.00599  -0.1111  0.3146  0.7573
   7.030   1.5409   0.01139   0.00617  -0.1095  0.3036  0.7575
   7.040   1.5472   0.01124   0.00607  -0.1104  0.3097  0.7575
   7.050   1.5499   0.01120   0.00604  -0.1107  0.3113  0.7576
   7.060   1.5433   0.01142   0.00620  -0.1094  0.3032  0.7578
   7.070   1.5419   0.01149   0.00625  -0.1090  0.3009  0.7579
   7.080   1.5466   0.01138   0.00618  -0.1096  0.3059  0.7579
   7.090   1.5505   0.01130   0.00612  -0.1101  0.3088  0.7579
   7.100   1.5548   0.01121   0.00606  -0.1107  0.3119  0.7579
   7.110   1.5558   0.01121   0.00607  -0.1107  0.3121  0.7580
   7.120   1.5575   0.01119   0.00606  -0.1108  0.3133  0.7581
   7.130   1.5468   0.01154   0.00630  -0.1088  0.3005  0.7583
   7.140   1.5427   0.01169   0.00641  -0.1079  0.2954  0.7585
   7.150   1.5574   0.01129   0.00613  -0.1103  0.3101  0.7583
   7.160   1.5455   0.01168   0.00641  -0.1080  0.2973  0.7586
   7.170   1.5545   0.01144   0.00624  -0.1094  0.3058  0.7585
   7.180   1.5526   0.01153   0.00630  -0.1089  0.3018  0.7587
   7.190   1.5551   0.01148   0.00628  -0.1091  0.3035  0.7587
   7.210   1.5419   0.01195   0.00662  -0.1065  0.2893  0.7591
   7.220   1.5588   0.01147   0.00627  -0.1092  0.3053  0.7589
   7.230   1.5539   0.01165   0.00640  -0.1082  0.2992  0.7591
   7.240   1.5553   0.01164   0.00640  -0.1083  0.2996  0.7591
   7.250   1.5464   0.01194   0.00662  -0.1066  0.2900  0.7593
   7.260   1.5542   0.01174   0.00648  -0.1078  0.2972  0.7593
   7.270   1.5634   0.01150   0.00630  -0.1092  0.3059  0.7592
   7.280   1.5503   0.01192   0.00661  -0.1067  0.2909  0.7595
   7.290   1.5453   0.01210   0.00675  -0.1057  0.2848  0.7597
   7.300   1.5562   0.01181   0.00654  -0.1074  0.2946  0.7596
   7.310   1.5481   0.01208   0.00674  -0.1058  0.2861  0.7598
   7.320   1.5573   0.01184   0.00657  -0.1072  0.2939  0.7597
   7.330   1.5601   0.01179   0.00653  -0.1075  0.2967  0.7597
