  
       XFOIL         Version 6.94
  
 Calculated polar for: 1080                                            
  
 1 1 Reynolds number fixed          Mach number fixed         
  
 xtrf =   1.000 (top)        1.000 (bottom)  
 Mach =   0.000     Re =     2.000 e 6     Ncrit =   9.000
  
  alpha     CL        CD       CDp       CM    Top_Xtr Bot_Xtr
 ------- -------- --------- --------- -------- ------- -------
   6.000   1.3526   0.00909   0.00440  -0.1032  0.4311  0.7358
   6.010   1.3536   0.00909   0.00440  -0.1032  0.4310  0.7358
   6.020   1.3546   0.00909   0.00440  -0.1032  0.4309  0.7358
   6.030   1.3556   0.00910   0.00441  -0.1032  0.4308  0.7359
   6.040   1.3566   0.00910   0.00441  -0.1032  0.4307  0.7359
   6.050   1.3575   0.00910   0.00442  -0.1032  0.4307  0.7360
   6.060   1.3585   0.00911   0.00442  -0.1032  0.4305  0.7360
   6.070   1.3595   0.00911   0.00442  -0.1032  0.4305  0.7361
   6.080   1.3605   0.00911   0.00443  -0.1032  0.4304  0.7361
   6.090   1.3614   0.00912   0.00443  -0.1032  0.4303  0.7362
   6.100   1.3624   0.00912   0.00444  -0.1032  0.4303  0.7362
   6.110   1.3634   0.00913   0.00444  -0.1032  0.4301  0.7362
   6.120   1.3643   0.00913   0.00445  -0.1032  0.4301  0.7363
   6.130   1.3653   0.00913   0.00445  -0.1032  0.4299  0.7363
   6.140   1.3663   0.00914   0.00446  -0.1032  0.4299  0.7364
   6.150   1.3672   0.00914   0.00446  -0.1032  0.4298  0.7364
   6.160   1.3682   0.00915   0.00446  -0.1032  0.4297  0.7365
   6.170   1.3691   0.00915   0.00447  -0.1032  0.4296  0.7365
   6.180   1.3701   0.00916   0.00447  -0.1032  0.4295  0.7365
   6.190   1.3710   0.00916   0.00448  -0.1032  0.4295  0.7366
   6.200   1.3720   0.00916   0.00448  -0.1032  0.4293  0.7366
   6.210   1.3729   0.00917   0.00449  -0.1032  0.4293  0.7367
   6.220   1.3738   0.00917   0.00449  -0.1032  0.4291  0.7367
   6.230   1.3748   0.00918   0.00450  -0.1031  0.4291  0.7367
   6.240   1.3757   0.00918   0.00450  -0.1031  0.4290  0.7368
   6.250   1.3766   0.00919   0.00451  -0.1031  0.4287  0.7368
   6.260   1.3776   0.00919   0.00451  -0.1031  0.4288  0.7369
   6.270   1.3785   0.00920   0.00452  -0.1031  0.4287  0.7369
   6.280   1.3795   0.00920   0.00452  -0.1031  0.4287  0.7370
   6.290   1.3804   0.00921   0.00453  -0.1031  0.4285  0.7370
   6.300   1.3813   0.00921   0.00453  -0.1031  0.4284  0.7370
   6.310   1.3822   0.00922   0.00454  -0.1031  0.4283  0.7371
   6.320   1.3830   0.00922   0.00454  -0.1030  0.4279  0.7371
   6.330   1.3840   0.00923   0.00455  -0.1030  0.4281  0.7372
   6.340   1.3850   0.00923   0.00455  -0.1030  0.4281  0.7372
   6.350   1.3859   0.00924   0.00456  -0.1030  0.4280  0.7372
   6.360   1.3868   0.00924   0.00456  -0.1030  0.4279  0.7373
   6.370   1.3877   0.00925   0.00457  -0.1030  0.4277  0.7373
   6.380   1.3886   0.00925   0.00457  -0.1030  0.4276  0.7374
   6.390   1.3895   0.00926   0.00458  -0.1030  0.4276  0.7374
   6.400   1.3904   0.00926   0.00458  -0.1030  0.4275  0.7374
   6.410   1.3912   0.00927   0.00459  -0.1029  0.4272  0.7375
   6.420   1.3922   0.00928   0.00459  -0.1029  0.4272  0.7375
   6.430   1.3930   0.00928   0.00460  -0.1029  0.4271  0.7376
   6.440   1.3940   0.00929   0.00460  -0.1029  0.4271  0.7376
   6.450   1.3948   0.00929   0.00461  -0.1029  0.4269  0.7376
   6.460   1.3951   0.00931   0.00462  -0.1027  0.4258  0.7377
   6.470   1.3966   0.00930   0.00462  -0.1028  0.4268  0.7377
   6.480   1.3976   0.00931   0.00462  -0.1028  0.4267  0.7377
   6.490   1.3985   0.00932   0.00463  -0.1028  0.4266  0.7378
   6.500   1.3993   0.00932   0.00464  -0.1028  0.4265  0.7378
   6.510   1.4001   0.00933   0.00464  -0.1028  0.4263  0.7379
   6.520   1.3989   0.00938   0.00466  -0.1024  0.4240  0.7379
   6.530   1.4020   0.00934   0.00465  -0.1027  0.4263  0.7379
   6.540   1.4028   0.00935   0.00466  -0.1027  0.4261  0.7380
   6.550   1.4037   0.00935   0.00466  -0.1027  0.4261  0.7380
   6.560   1.4045   0.00936   0.00467  -0.1027  0.4259  0.7380
   6.570   1.4055   0.00937   0.00468  -0.1027  0.4259  0.7381
   6.580   1.4063   0.00937   0.00468  -0.1026  0.4258  0.7381
   6.590   1.4070   0.00938   0.00469  -0.1026  0.4255  0.7381
   6.600   1.4079   0.00939   0.00469  -0.1026  0.4255  0.7382
   6.610   1.4075   0.00942   0.00471  -0.1023  0.4241  0.7382
   6.620   1.4068   0.00946   0.00474  -0.1020  0.4223  0.7383
   6.630   1.4105   0.00941   0.00471  -0.1025  0.4252  0.7383
   6.640   1.4108   0.00943   0.00472  -0.1024  0.4246  0.7383
   6.650   1.4118   0.00943   0.00473  -0.1024  0.4246  0.7383
   6.660   1.4130   0.00943   0.00473  -0.1024  0.4249  0.7384
