  
       XFOIL         Version 6.94
  
 Calculated polar for: 1080                                            
  
 1 1 Reynolds number fixed          Mach number fixed         
  
 xtrf =   1.000 (top)        1.000 (bottom)  
 Mach =   0.000     Re =     2.000 e 6     Ncrit =   9.000
  
  alpha     CL        CD       CDp       CM    Top_Xtr Bot_Xtr
 ------- -------- --------- --------- -------- ------- -------
   6.000   1.1437   0.00941   0.00414  -0.0676  0.2837  0.7504
   6.010   1.1445   0.00943   0.00415  -0.0675  0.2828  0.7505
   6.020   1.1456   0.00943   0.00415  -0.0676  0.2828  0.7506
   6.030   1.1460   0.00947   0.00417  -0.0674  0.2810  0.7507
   6.040   1.1480   0.00943   0.00415  -0.0676  0.2834  0.7507
   6.060   1.1490   0.00950   0.00420  -0.0674  0.2802  0.7509
   6.070   1.1505   0.00948   0.00419  -0.0675  0.2812  0.7510
   6.080   1.1506   0.00953   0.00422  -0.0673  0.2792  0.7511
   6.090   1.1516   0.00954   0.00423  -0.0673  0.2788  0.7512
   6.100   1.1539   0.00949   0.00420  -0.0675  0.2814  0.7512
   6.110   1.1537   0.00955   0.00424  -0.0673  0.2787  0.7513
   6.120   1.1553   0.00953   0.00423  -0.0674  0.2797  0.7514
   6.130   1.1568   0.00952   0.00422  -0.0675  0.2805  0.7514
   6.140   1.1570   0.00957   0.00425  -0.0673  0.2784  0.7515
   6.160   1.1590   0.00958   0.00427  -0.0673  0.2780  0.7516
   6.180   1.1609   0.00960   0.00428  -0.0673  0.2769  0.7518
   6.190   1.1624   0.00959   0.00428  -0.0673  0.2784  0.7518
   6.200   1.1632   0.00961   0.00429  -0.0673  0.2770  0.7519
   6.210   1.1645   0.00960   0.00429  -0.0673  0.2781  0.7520
   6.220   1.1651   0.00963   0.00431  -0.0672  0.2761  0.7521
   6.230   1.1663   0.00962   0.00431  -0.0673  0.2766  0.7521
   6.240   1.1675   0.00962   0.00431  -0.0673  0.2771  0.7522
   6.250   1.1688   0.00962   0.00431  -0.0673  0.2778  0.7523
   6.260   1.1698   0.00963   0.00431  -0.0673  0.2774  0.7523
   6.270   1.1703   0.00966   0.00433  -0.0672  0.2754  0.7524
   6.280   1.1718   0.00964   0.00433  -0.0673  0.2766  0.7525
   6.290   1.1727   0.00966   0.00434  -0.0673  0.2761  0.7525
   6.300   1.1725   0.00972   0.00438  -0.0671  0.2731  0.7526
   6.310   1.1746   0.00968   0.00435  -0.0672  0.2753  0.7526
   6.320   1.1759   0.00967   0.00435  -0.0673  0.2759  0.7527
   6.330   1.1757   0.00973   0.00439  -0.0671  0.2730  0.7528
   6.340   1.1777   0.00970   0.00437  -0.0672  0.2749  0.7528
