  
       XFOIL         Version 6.94
  
 Calculated polar for: 1080                                            
  
 1 1 Reynolds number fixed          Mach number fixed         
  
 xtrf =   1.000 (top)        1.000 (bottom)  
 Mach =   0.000     Re =     2.000 e 6     Ncrit =   9.000
  
  alpha     CL        CD       CDp       CM    Top_Xtr Bot_Xtr
 ------- -------- --------- --------- -------- ------- -------
   6.000   1.4676   0.01054   0.00703  -0.1888  0.6486  0.8328
   6.010   1.4688   0.01055   0.00704  -0.1889  0.6486  0.8328
   6.020   1.4703   0.01056   0.00705  -0.1890  0.6486  0.8328
   6.030   1.4684   0.01054   0.00704  -0.1884  0.6485  0.8328
   6.040   1.4700   0.01056   0.00705  -0.1885  0.6485  0.8328
   6.050   1.4705   0.01056   0.00706  -0.1884  0.6485  0.8328
   6.060   1.4694   0.01055   0.00705  -0.1880  0.6484  0.8328
   6.070   1.4703   0.01056   0.00706  -0.1880  0.6484  0.8328
   6.080   1.4706   0.01056   0.00706  -0.1878  0.6484  0.8328
   6.090   1.4704   0.01056   0.00706  -0.1876  0.6483  0.8328
   6.100   1.4703   0.01056   0.00707  -0.1874  0.6483  0.8328
   6.110   1.4686   0.01056   0.00706  -0.1868  0.6481  0.8328
   6.120   1.4688   0.01056   0.00707  -0.1866  0.6481  0.8328
   6.130   1.4704   0.01057   0.00708  -0.1868  0.6481  0.8328
   6.140   1.4692   0.01057   0.00708  -0.1863  0.6480  0.8328
   6.150   1.4696   0.01057   0.00709  -0.1862  0.6480  0.8328
   6.160   1.4702   0.01058   0.00709  -0.1861  0.6480  0.8328
   6.170   1.4691   0.01058   0.00709  -0.1857  0.6479  0.8328
   6.180   1.4677   0.01057   0.00709  -0.1852  0.6477  0.8329
   6.190   1.4699   0.01059   0.00711  -0.1855  0.6478  0.8328
   6.200   1.4706   0.01059   0.00711  -0.1854  0.6478  0.8328
   6.210   1.4700   0.01059   0.00712  -0.1851  0.6477  0.8329
   6.230   1.4705   0.01060   0.00713  -0.1848  0.6476  0.8329
   6.240   1.4708   0.01060   0.00713  -0.1847  0.6476  0.8329
   6.250   1.4696   0.01060   0.00713  -0.1842  0.6475  0.8329
   6.260   1.4684   0.01060   0.00713  -0.1838  0.6474  0.8329
   6.270   1.4697   0.01061   0.00714  -0.1838  0.6474  0.8329
   6.280   1.4709   0.01062   0.00715  -0.1839  0.6474  0.8329
   6.290   1.4692   0.01061   0.00715  -0.1833  0.6472  0.8329
   6.300   1.4709   0.01062   0.00716  -0.1835  0.6473  0.8329
   6.310   1.4700   0.01062   0.00716  -0.1831  0.6472  0.8329
   6.320   1.4721   0.01064   0.00718  -0.1834  0.6472  0.8329
   6.330   1.4713   0.01063   0.00718  -0.1830  0.6471  0.8329
   6.340   1.4708   0.01063   0.00718  -0.1827  0.6470  0.8329
   6.350   1.4704   0.01063   0.00718  -0.1824  0.6469  0.8329
   6.360   1.4715   0.01064   0.00719  -0.1824  0.6470  0.8329
   6.370   1.4717   0.01064   0.00719  -0.1823  0.6469  0.8329
   6.380   1.4730   0.01065   0.00720  -0.1824  0.6469  0.8329
   6.390   1.4715   0.01064   0.00720  -0.1819  0.6468  0.8330
   6.400   1.4725   0.01065   0.00721  -0.1819  0.6468  0.8330
   6.410   1.4720   0.01065   0.00721  -0.1816  0.6467  0.8330
   6.420   1.4724   0.01066   0.00721  -0.1815  0.6466  0.8330
   6.430   1.4731   0.01066   0.00722  -0.1814  0.6466  0.8330
   6.440   1.4729   0.01066   0.00722  -0.1812  0.6465  0.8330
   6.450   1.4748   0.01068   0.00724  -0.1814  0.6466  0.8330
   6.460   1.4743   0.01067   0.00723  -0.1811  0.6465  0.8330
   6.470   1.4756   0.01069   0.00725  -0.1812  0.6465  0.8330
   6.480   1.4763   0.01069   0.00726  -0.1811  0.6465  0.8330
   6.490   1.4747   0.01068   0.00724  -0.1806  0.6463  0.8330
   6.500   1.4762   0.01069   0.00726  -0.1807  0.6463  0.8330
   6.510   1.4764   0.01069   0.00726  -0.1805  0.6463  0.8330
   6.520   1.4764   0.01069   0.00725  -0.1804  0.6462  0.8330
   6.530   1.4775   0.01070   0.00727  -0.1804  0.6462  0.8330
   6.540   1.4770   0.01069   0.00725  -0.1801  0.6460  0.8330
   6.550   1.4785   0.01071   0.00728  -0.1802  0.6461  0.8330
   6.560   1.4787   0.01070   0.00727  -0.1801  0.6460  0.8330
   6.570   1.4794   0.01071   0.00728  -0.1800  0.6460  0.8330
   6.580   1.4800   0.01071   0.00728  -0.1799  0.6460  0.8330
   6.590   1.4805   0.01071   0.00728  -0.1798  0.6459  0.8330
   6.600   1.4809   0.01071   0.00728  -0.1797  0.6458  0.8330
   6.610   1.4810   0.01070   0.00727  -0.1796  0.6457  0.8330
   6.620   1.4815   0.01070   0.00727  -0.1795  0.6457  0.8330
   6.630   1.4817   0.01069   0.00726  -0.1793  0.6455  0.8330
   6.640   1.4832   0.01071   0.00729  -0.1794  0.6456  0.8330
   6.650   1.4836   0.01071   0.00729  -0.1793  0.6456  0.8330
   6.660   1.4847   0.01073   0.00731  -0.1794  0.6456  0.8330
   6.670   1.4847   0.01071   0.00729  -0.1791  0.6454  0.8330
   6.680   1.4855   0.01072   0.00730  -0.1791  0.6454  0.8330
   6.690   1.4862   0.01072   0.00730  -0.1791  0.6454  0.8330
   6.700   1.4869   0.01073   0.00731  -0.1790  0.6454  0.8330
   6.710   1.4877   0.01073   0.00732  -0.1790  0.6454  0.8330
   6.720   1.4879   0.01071   0.00729  -0.1789  0.6452  0.8330
   6.730   1.4888   0.01073   0.00731  -0.1789  0.6452  0.8330
   6.740   1.4896   0.01073   0.00732  -0.1788  0.6452  0.8330
   6.750   1.4902   0.01073   0.00732  -0.1788  0.6452  0.8330
   6.760   1.4907   0.01072   0.00731  -0.1787  0.6451  0.8330
   6.770   1.4916   0.01073   0.00732  -0.1786  0.6451  0.8330
   6.780   1.4920   0.01071   0.00730  -0.1785  0.6449  0.8330
   6.790   1.4930   0.01074   0.00733  -0.1786  0.6450  0.8330
   6.800   1.4939   0.01075   0.00733  -0.1786  0.6450  0.8330
   6.810   1.4943   0.01072   0.00731  -0.1784  0.6448  0.8330
   6.820   1.4950   0.01071   0.00730  -0.1784  0.6448  0.8330
   6.830   1.4959   0.01073   0.00732  -0.1784  0.6448  0.8330
   6.840   1.4967   0.01073   0.00732  -0.1784  0.6448  0.8330
   6.850   1.4975   0.01073   0.00732  -0.1783  0.6447  0.8330
   6.860   1.4982   0.01071   0.00730  -0.1783  0.6446  0.8330
   6.870   1.4990   0.01074   0.00733  -0.1783  0.6447  0.8330
   6.880   1.4999   0.01073   0.00732  -0.1782  0.6446  0.8330
   6.890   1.5006   0.01072   0.00731  -0.1782  0.6445  0.8330
   6.900   1.5015   0.01073   0.00732  -0.1782  0.6445  0.8330
   6.910   1.5023   0.01073   0.00733  -0.1782  0.6445  0.8330
   6.920   1.5032   0.01071   0.00730  -0.1781  0.6443  0.8330
   6.930   1.5040   0.01072   0.00731  -0.1781  0.6444  0.8330
   6.940   1.5048   0.01075   0.00734  -0.1781  0.6444  0.8330
   6.950   1.5057   0.01072   0.00731  -0.1781  0.6443  0.8330
   6.960   1.5067   0.01071   0.00730  -0.1781  0.6442  0.8330
   6.970   1.5075   0.01071   0.00730  -0.1781  0.6442  0.8330
   6.980   1.5084   0.01072   0.00731  -0.1780  0.6442  0.8330
   6.990   1.5094   0.01070   0.00729  -0.1780  0.6441  0.8330
   7.000   1.5101   0.01072   0.00732  -0.1780  0.6441  0.8330
   7.010   1.5111   0.01071   0.00730  -0.1780  0.6440  0.8330
   7.020   1.5120   0.01071   0.00731  -0.1780  0.6440  0.8330
   7.030   1.5129   0.01071   0.00731  -0.1780  0.6440  0.8330
   7.040   1.5139   0.01070   0.00730  -0.1780  0.6439  0.8330
   7.050   1.5148   0.01070   0.00729  -0.1780  0.6439  0.8330
   7.060   1.5157   0.01071   0.00730  -0.1780  0.6438  0.8330
   7.070   1.5172   0.01066   0.00725  -0.1781  0.6436  0.8330
   7.080   1.5179   0.01067   0.00726  -0.1781  0.6437  0.8330
   7.090   1.5184   0.01070   0.00730  -0.1780  0.6437  0.8330
   7.100   1.5195   0.01070   0.00729  -0.1780  0.6437  0.8330
   7.110   1.5204   0.01071   0.00730  -0.1780  0.6437  0.8330
   7.120   1.5214   0.01070   0.00729  -0.1780  0.6436  0.8330
   7.130   1.5222   0.01071   0.00730  -0.1780  0.6436  0.8330
   7.140   1.5235   0.01068   0.00728  -0.1781  0.6435  0.8330
   7.150   1.5245   0.01068   0.00728  -0.1781  0.6435  0.8330
   7.160   1.5251   0.01071   0.00730  -0.1780  0.6435  0.8330
   7.170   1.5263   0.01069   0.00729  -0.1781  0.6434  0.8330
   7.180   1.5277   0.01066   0.00726  -0.1781  0.6433  0.8330
   7.190   1.5284   0.01068   0.00728  -0.1781  0.6433  0.8330
   7.200   1.5298   0.01066   0.00725  -0.1782  0.6432  0.8330
   7.210   1.5306   0.01066   0.00726  -0.1782  0.6432  0.8330
   7.220   1.5315   0.01067   0.00727  -0.1782  0.6432  0.8330
   7.230   1.5325   0.01067   0.00727  -0.1782  0.6432  0.8330
   7.240   1.5337   0.01066   0.00726  -0.1782  0.6431  0.8330
   7.250   1.5345   0.01067   0.00727  -0.1782  0.6431  0.8330
   7.260   1.5358   0.01066   0.00726  -0.1783  0.6431  0.8330
   7.270   1.5365   0.01067   0.00727  -0.1782  0.6431  0.8330
   7.280   1.5377   0.01067   0.00726  -0.1783  0.6430  0.8330
   7.290   1.5390   0.01065   0.00725  -0.1783  0.6430  0.8330
   7.300   1.5400   0.01065   0.00725  -0.1784  0.6429  0.8330
   7.310   1.5416   0.01062   0.00722  -0.1785  0.6428  0.8330
   7.320   1.5424   0.01064   0.00723  -0.1784  0.6428  0.8330
   7.330   1.5437   0.01062   0.00721  -0.1785  0.6427  0.8330
   7.340   1.5447   0.01062   0.00722  -0.1785  0.6427  0.8330
   7.350   1.5459   0.01062   0.00721  -0.1786  0.6427  0.8330
   7.360   1.5467   0.01063   0.00722  -0.1786  0.6427  0.8330
   7.370   1.5478   0.01063   0.00722  -0.1786  0.6426  0.8330
   7.380   1.5490   0.01062   0.00721  -0.1787  0.6426  0.8330
   7.390   1.5494   0.01065   0.00725  -0.1786  0.6427  0.8330
   7.400   1.5514   0.01060   0.00720  -0.1788  0.6425  0.8330
   7.410   1.5520   0.01063   0.00722  -0.1787  0.6425  0.8330
   7.420   1.5541   0.01058   0.00717  -0.1789  0.6424  0.8330
   7.430   1.5546   0.01061   0.00720  -0.1788  0.6424  0.8329
   7.440   1.5555   0.01061   0.00720  -0.1788  0.6424  0.8329
   7.450   1.5569   0.01060   0.00719  -0.1789  0.6423  0.8329
   7.460   1.5579   0.01060   0.00719  -0.1789  0.6423  0.8329
   7.470   1.5597   0.01057   0.00716  -0.1791  0.6422  0.8329
   7.480   1.5611   0.01055   0.00714  -0.1792  0.6421  0.8329
   7.490   1.5614   0.01059   0.00718  -0.1791  0.6422  0.8329
   7.500   1.5624   0.01059   0.00718  -0.1791  0.6422  0.8329
   7.510   1.5637   0.01058   0.00717  -0.1792  0.6421  0.8329
   7.520   1.5652   0.01056   0.00715  -0.1793  0.6420  0.8329
   7.530   1.5659   0.01058   0.00717  -0.1792  0.6420  0.8329
   7.540   1.5670   0.01058   0.00717  -0.1793  0.6420  0.8329
   7.550   1.5678   0.01059   0.00718  -0.1792  0.6420  0.8329
   7.560   1.5692   0.01058   0.00717  -0.1793  0.6419  0.8329
   7.570   1.5714   0.01053   0.00711  -0.1796  0.6417  0.8329
   7.580   1.5716   0.01057   0.00716  -0.1794  0.6418  0.8329
   7.590   1.5729   0.01056   0.00715  -0.1795  0.6417  0.8329
   7.600   1.5742   0.01055   0.00714  -0.1796  0.6417  0.8329
   7.610   1.5751   0.01056   0.00715  -0.1796  0.6417  0.8329
   7.620   1.5753   0.01059   0.00719  -0.1794  0.6418  0.8329
   7.630   1.5773   0.01056   0.00715  -0.1796  0.6416  0.8329
   7.640   1.5782   0.01056   0.00715  -0.1796  0.6416  0.8329
   7.650   1.5793   0.01056   0.00715  -0.1797  0.6415  0.8329
   7.660   1.5804   0.01057   0.00716  -0.1797  0.6415  0.8329
   7.670   1.5814   0.01057   0.00716  -0.1797  0.6415  0.8329
   7.680   1.5828   0.01056   0.00715  -0.1798  0.6414  0.8329
   7.690   1.5838   0.01056   0.00715  -0.1798  0.6414  0.8329
   7.700   1.5849   0.01056   0.00715  -0.1798  0.6413  0.8329
   7.710   1.5860   0.01056   0.00715  -0.1799  0.6413  0.8329
   7.720   1.5871   0.01057   0.00716  -0.1799  0.6412  0.8329
   7.730   1.5881   0.01057   0.00716  -0.1799  0.6412  0.8329
   7.740   1.5888   0.01058   0.00718  -0.1799  0.6413  0.8329
   7.750   1.5904   0.01057   0.00716  -0.1800  0.6411  0.8329
   7.760   1.5915   0.01057   0.00716  -0.1801  0.6410  0.8329
   7.770   1.5926   0.01058   0.00717  -0.1801  0.6410  0.8329
   7.780   1.5940   0.01057   0.00716  -0.1802  0.6409  0.8329
   7.790   1.5949   0.01058   0.00718  -0.1802  0.6409  0.8329
   7.800   1.5957   0.01059   0.00719  -0.1802  0.6410  0.8329
   7.810   1.5970   0.01059   0.00719  -0.1802  0.6409  0.8329
   7.820   1.5983   0.01059   0.00719  -0.1803  0.6408  0.8329
   7.830   1.5994   0.01060   0.00719  -0.1804  0.6408  0.8329
   7.840   1.6021   0.01058   0.00717  -0.1807  0.6406  0.8329
   7.850   1.6029   0.01059   0.00718  -0.1807  0.6406  0.8329
   7.860   1.6039   0.01060   0.00719  -0.1807  0.6406  0.8329
   7.870   1.6058   0.01059   0.00718  -0.1809  0.6405  0.8329
   7.880   1.6077   0.01059   0.00718  -0.1811  0.6404  0.8328
   7.890   1.6095   0.01059   0.00718  -0.1813  0.6404  0.8328
   7.900   1.6107   0.01059   0.00718  -0.1813  0.6403  0.8328
   7.910   1.6095   0.01062   0.00721  -0.1809  0.6403  0.8329
   7.920   1.6107   0.01062   0.00722  -0.1809  0.6403  0.8329
   7.930   1.6108   0.01063   0.00723  -0.1808  0.6403  0.8329
   7.940   1.6057   0.01068   0.00729  -0.1796  0.6401  0.8329
   7.950   1.6066   0.01069   0.00729  -0.1796  0.6401  0.8329
   7.960   1.6086   0.01069   0.00729  -0.1798  0.6401  0.8329
   7.970   1.6079   0.01071   0.00732  -0.1795  0.6401  0.8329
   7.980   1.6065   0.01073   0.00734  -0.1790  0.6400  0.8329
   7.990   1.6098   0.01072   0.00733  -0.1795  0.6401  0.8329
   8.000   1.6077   0.01075   0.00737  -0.1789  0.6400  0.8330
   8.010   1.6045   0.01079   0.00742  -0.1781  0.6399  0.8330
   8.020   1.5984   0.01086   0.00749  -0.1767  0.6396  0.8331
   8.030   1.6019   0.01085   0.00748  -0.1772  0.6397  0.8330
   8.040   1.6066   0.01082   0.00745  -0.1780  0.6399  0.8330
   8.050   1.6063   0.01084   0.00747  -0.1777  0.6398  0.8330
   8.060   1.6028   0.01088   0.00752  -0.1769  0.6397  0.8331
   8.070   1.6049   0.01088   0.00752  -0.1771  0.6397  0.8330
   8.080   1.6050   0.01090   0.00753  -0.1769  0.6397  0.8331
   8.090   1.6000   0.01096   0.00761  -0.1758  0.6395  0.8331
   8.100   1.6004   0.01097   0.00762  -0.1757  0.6394  0.8331
   8.110   1.6044   0.01095   0.00760  -0.1763  0.6396  0.8331
   8.120   1.6010   0.01100   0.00765  -0.1755  0.6394  0.8331
   8.130   1.6038   0.01099   0.00764  -0.1758  0.6395  0.8331
   8.140   1.6028   0.01102   0.00767  -0.1755  0.6394  0.8331
   8.150   1.6024   0.01104   0.00770  -0.1752  0.6393  0.8332
   8.160   1.6024   0.01106   0.00772  -0.1750  0.6393  0.8332
   8.170   1.6020   0.01108   0.00774  -0.1748  0.6392  0.8332
   8.180   1.6011   0.01110   0.00777  -0.1744  0.6392  0.8332
   8.190   1.6007   0.01112   0.00779  -0.1742  0.6391  0.8332
   8.200   1.6010   0.01114   0.00781  -0.1741  0.6391  0.8332
   8.210   1.6016   0.01115   0.00782  -0.1740  0.6391  0.8332
   8.220   1.6012   0.01117   0.00785  -0.1738  0.6390  0.8332
   8.230   1.6011   0.01119   0.00787  -0.1736  0.6390  0.8332
   8.240   1.6007   0.01121   0.00789  -0.1733  0.6389  0.8333
   8.250   1.6007   0.01123   0.00792  -0.1731  0.6389  0.8333
   8.260   1.5996   0.01127   0.00795  -0.1728  0.6388  0.8333
   8.270   1.5986   0.01130   0.00798  -0.1724  0.6387  0.8333
   8.280   1.6018   0.01128   0.00797  -0.1728  0.6388  0.8333
   8.290   1.5972   0.01135   0.00804  -0.1718  0.6385  0.8333
   8.300   1.6006   0.01133   0.00802  -0.1723  0.6386  0.8333
   8.310   1.5999   0.01136   0.00805  -0.1720  0.6385  0.8333
   8.320   1.6002   0.01137   0.00807  -0.1718  0.6385  0.8333
   8.330   1.6016   0.01138   0.00808  -0.1719  0.6386  0.8333
   8.340   1.5998   0.01142   0.00812  -0.1714  0.6384  0.8334
   8.350   1.5968   0.01147   0.00818  -0.1707  0.6381  0.8334
   8.360   1.5992   0.01146   0.00817  -0.1710  0.6382  0.8334
   8.370   1.5981   0.01149   0.00820  -0.1706  0.6381  0.8334
   8.380   1.5997   0.01150   0.00821  -0.1707  0.6382  0.8334
   8.390   1.5947   0.01157   0.00829  -0.1696  0.6378  0.8335
   8.400   1.5985   0.01155   0.00827  -0.1701  0.6380  0.8334
   8.410   1.5959   0.01160   0.00832  -0.1695  0.6377  0.8335
   8.420   1.5982   0.01159   0.00831  -0.1698  0.6378  0.8334
   8.430   1.5981   0.01162   0.00834  -0.1696  0.6378  0.8334
   8.440   1.5977   0.01164   0.00836  -0.1693  0.6377  0.8335
   8.450   1.5992   0.01164   0.00837  -0.1694  0.6377  0.8335
   8.460   1.5986   0.01167   0.00839  -0.1692  0.6376  0.8335
   8.470   1.5979   0.01170   0.00842  -0.1689  0.6375  0.8335
   8.480   1.5955   0.01174   0.00847  -0.1682  0.6372  0.8335
   8.490   1.6002   0.01171   0.00844  -0.1690  0.6376  0.8335
   8.500   1.5994   0.01174   0.00847  -0.1686  0.6374  0.8335
   8.510   1.6000   0.01175   0.00849  -0.1686  0.6374  0.8335
   8.520   1.5989   0.01178   0.00852  -0.1682  0.6372  0.8335
   8.530   1.6005   0.01179   0.00853  -0.1683  0.6373  0.8335
   8.540   1.6005   0.01180   0.00855  -0.1682  0.6372  0.8335
   8.550   1.6009   0.01182   0.00856  -0.1681  0.6372  0.8336
   8.560   1.5998   0.01185   0.00860  -0.1677  0.6370  0.8336
   8.570   1.5991   0.01188   0.00862  -0.1674  0.6368  0.8336
   8.580   1.6001   0.01189   0.00864  -0.1674  0.6369  0.8336
   8.590   1.6006   0.01190   0.00865  -0.1674  0.6368  0.8336
   8.600   1.5970   0.01194   0.00869  -0.1665  0.6362  0.8336
   8.610   1.6003   0.01194   0.00869  -0.1670  0.6366  0.8336
   8.620   1.6023   0.01195   0.00870  -0.1672  0.6368  0.8336
   8.630   1.6025   0.01196   0.00872  -0.1671  0.6367  0.8336
   8.640   1.6023   0.01198   0.00874  -0.1669  0.6366  0.8336
   8.650   1.6024   0.01200   0.00876  -0.1667  0.6365  0.8336
   8.660   1.6024   0.01201   0.00877  -0.1665  0.6364  0.8336
   8.670   1.6034   0.01203   0.00879  -0.1666  0.6364  0.8336
   8.680   1.6032   0.01204   0.00880  -0.1663  0.6362  0.8337
   8.690   1.6039   0.01205   0.00882  -0.1663  0.6362  0.8337
   8.700   1.6042   0.01207   0.00883  -0.1662  0.6361  0.8337
   8.710   1.6031   0.01207   0.00884  -0.1658  0.6357  0.8337
   8.720   1.6056   0.01209   0.00886  -0.1661  0.6361  0.8337
   8.730   1.6057   0.01210   0.00887  -0.1660  0.6360  0.8337
   8.740   1.6064   0.01212   0.00889  -0.1660  0.6360  0.8337
   8.750   1.6067   0.01213   0.00890  -0.1658  0.6359  0.8337
   8.760   1.6054   0.01213   0.00889  -0.1654  0.6353  0.8337
   8.770   1.6070   0.01215   0.00892  -0.1656  0.6356  0.8337
   8.780   1.6080   0.01217   0.00894  -0.1656  0.6357  0.8337
   8.790   1.6077   0.01217   0.00894  -0.1654  0.6354  0.8337
   8.800   1.6091   0.01219   0.00897  -0.1655  0.6356  0.8337
   8.810   1.6103   0.01221   0.00899  -0.1655  0.6357  0.8337
   8.820   1.6100   0.01221   0.00899  -0.1653  0.6354  0.8337
   8.830   1.6108   0.01223   0.00901  -0.1653  0.6355  0.8337
   8.840   1.6110   0.01223   0.00901  -0.1652  0.6353  0.8337
   8.850   1.6116   0.01224   0.00902  -0.1651  0.6352  0.8337
   8.860   1.6119   0.01224   0.00902  -0.1650  0.6350  0.8338
   8.870   1.6124   0.01223   0.00900  -0.1649  0.6347  0.8338
   8.880   1.6139   0.01229   0.00907  -0.1650  0.6353  0.8338
   8.890   1.6141   0.01227   0.00905  -0.1649  0.6349  0.8338
   8.900   1.6150   0.01230   0.00909  -0.1649  0.6351  0.8338
   8.910   1.6158   0.01232   0.00911  -0.1649  0.6352  0.8338
   8.920   1.6161   0.01229   0.00907  -0.1648  0.6347  0.8338
   8.930   1.6169   0.01232   0.00910  -0.1648  0.6348  0.8338
   8.940   1.6177   0.01232   0.00911  -0.1647  0.6348  0.8338
   8.950   1.6184   0.01234   0.00913  -0.1647  0.6348  0.8338
   8.960   1.6191   0.01231   0.00910  -0.1647  0.6344  0.8338
   8.970   1.6198   0.01232   0.00910  -0.1646  0.6343  0.8338
   8.980   1.6206   0.01236   0.00915  -0.1646  0.6346  0.8338
   8.990   1.6213   0.01237   0.00917  -0.1646  0.6346  0.8338
   9.000   1.6221   0.01235   0.00914  -0.1645  0.6343  0.8338
   9.010   1.6228   0.01236   0.00915  -0.1645  0.6343  0.8338
   9.020   1.6236   0.01238   0.00917  -0.1645  0.6343  0.8338
   9.030   1.6233   0.01232   0.00910  -0.1642  0.6334  0.8338
   9.040   1.6252   0.01238   0.00917  -0.1645  0.6341  0.8338
   9.050   1.6257   0.01236   0.00915  -0.1644  0.6338  0.8338
   9.060   1.6266   0.01242   0.00921  -0.1644  0.6342  0.8338
   9.070   1.6273   0.01239   0.00919  -0.1644  0.6338  0.8338
   9.080   1.6276   0.01238   0.00917  -0.1642  0.6335  0.8338
   9.090   1.6283   0.01239   0.00918  -0.1642  0.6334  0.8339
   9.100   1.6295   0.01242   0.00921  -0.1643  0.6337  0.8339
   9.110   1.6303   0.01244   0.00924  -0.1643  0.6339  0.8339
   9.120   1.6290   0.01240   0.00918  -0.1638  0.6326  0.8339
   9.130   1.6297   0.01243   0.00922  -0.1638  0.6329  0.8339
   9.140   1.6312   0.01244   0.00923  -0.1639  0.6331  0.8339
   9.150   1.6314   0.01245   0.00924  -0.1638  0.6329  0.8339
   9.160   1.6319   0.01246   0.00925  -0.1637  0.6327  0.8339
   9.170   1.6345   0.01250   0.00930  -0.1641  0.6336  0.8339
   9.180   1.6335   0.01248   0.00927  -0.1637  0.6327  0.8339
   9.190   1.6344   0.01249   0.00928  -0.1637  0.6327  0.8339
   9.200   1.6359   0.01251   0.00932  -0.1638  0.6331  0.8339
   9.210   1.6366   0.01252   0.00933  -0.1638  0.6330  0.8339
   9.220   1.6385   0.01245   0.00923  -0.1639  0.6323  0.8339
   9.230   1.6385   0.01255   0.00936  -0.1638  0.6332  0.8339
   9.240   1.6402   0.01247   0.00925  -0.1639  0.6322  0.8339
   9.250   1.6411   0.01247   0.00926  -0.1639  0.6322  0.8339
   9.260   1.6426   0.01246   0.00925  -0.1640  0.6321  0.8339
   9.270   1.6453   0.01241   0.00919  -0.1643  0.6318  0.8339
   9.280   1.6457   0.01243   0.00921  -0.1643  0.6319  0.8339
   9.290   1.6491   0.01237   0.00914  -0.1647  0.6316  0.8339
   9.300   1.6444   0.01255   0.00935  -0.1637  0.6323  0.8340
   9.310   1.6463   0.01253   0.00932  -0.1639  0.6322  0.8339
   9.320   1.6506   0.01243   0.00921  -0.1645  0.6317  0.8339
   9.330   1.6528   0.01240   0.00917  -0.1647  0.6316  0.8339
   9.340   1.6543   0.01239   0.00917  -0.1648  0.6315  0.8339
   9.350   1.6536   0.01244   0.00923  -0.1646  0.6317  0.8339
   9.360   1.6533   0.01249   0.00928  -0.1644  0.6318  0.8339
   9.370   1.6559   0.01244   0.00922  -0.1646  0.6314  0.8339
   9.380   1.6525   0.01259   0.00939  -0.1639  0.6321  0.8340
   9.390   1.6511   0.01262   0.00941  -0.1635  0.6312  0.8340
   9.400   1.6538   0.01258   0.00938  -0.1638  0.6313  0.8340
   9.410   1.6575   0.01254   0.00934  -0.1643  0.6318  0.8340
   9.420   1.6456   0.01285   0.00967  -0.1621  0.6309  0.8341
   9.430   1.6399   0.01304   0.00986  -0.1609  0.6306  0.8341
   9.440   1.6410   0.01304   0.00986  -0.1610  0.6307  0.8341
   9.450   1.6427   0.01303   0.00985  -0.1611  0.6307  0.8341
   9.460   1.6095   0.01403   0.01089  -0.1553  0.6286  0.8343
   9.470   1.6503   0.01289   0.00971  -0.1621  0.6309  0.8341
   9.480   1.6406   0.01319   0.01002  -0.1603  0.6305  0.8341
   9.490   1.6504   0.01296   0.00978  -0.1618  0.6309  0.8341
   9.500   1.6417   0.01323   0.01006  -0.1602  0.6305  0.8342
   9.510   1.6276   0.01367   0.01052  -0.1576  0.6297  0.8343
   9.520   1.6423   0.01328   0.01012  -0.1600  0.6304  0.8342
   9.530   1.6591   0.01286   0.00968  -0.1627  0.6311  0.8341
   9.540   1.6349   0.01356   0.01042  -0.1584  0.6300  0.8342
   9.550   1.6328   0.01366   0.01052  -0.1579  0.6298  0.8343
   9.560   1.6235   0.01398   0.01085  -0.1562  0.6291  0.8343
   9.570   1.6321   0.01375   0.01062  -0.1575  0.6297  0.8343
   9.580   1.6451   0.01341   0.01026  -0.1596  0.6303  0.8342
   9.590   1.6261   0.01401   0.01089  -0.1562  0.6292  0.8343
   9.600   1.6406   0.01361   0.01047  -0.1585  0.6301  0.8343
   9.610   1.6409   0.01364   0.01050  -0.1584  0.6300  0.8343
   9.620   1.6392   0.01372   0.01059  -0.1580  0.6299  0.8343
   9.630   1.6397   0.01375   0.01062  -0.1579  0.6299  0.8343
   9.640   1.6398   0.01378   0.01065  -0.1577  0.6299  0.8343
   9.650   1.6201   0.01443   0.01132  -0.1543  0.6284  0.8344
   9.660   1.6246   0.01432   0.01121  -0.1549  0.6287  0.8344
   9.670   1.6213   0.01446   0.01136  -0.1542  0.6284  0.8344
   9.680   1.6370   0.01401   0.01090  -0.1567  0.6295  0.8344
   9.690   1.6306   0.01425   0.01114  -0.1555  0.6291  0.8344
   9.700   1.6216   0.01457   0.01147  -0.1538  0.6282  0.8345
   9.710   1.6198   0.01467   0.01158  -0.1534  0.6280  0.8345
   9.720   1.6366   0.01417   0.01107  -0.1560  0.6293  0.8344
   9.730   1.6177   0.01482   0.01173  -0.1527  0.6276  0.8345
   9.740   1.6167   0.01489   0.01180  -0.1524  0.6275  0.8345
   9.750   1.6276   0.01457   0.01148  -0.1541  0.6285  0.8345
   9.760   1.6252   0.01469   0.01160  -0.1536  0.6282  0.8345
   9.770   1.6135   0.01511   0.01202  -0.1515  0.6266  0.8346
   9.780   1.6155   0.01508   0.01200  -0.1517  0.6269  0.8346
   9.790   1.6183   0.01504   0.01196  -0.1520  0.6272  0.8346
   9.800   1.6218   0.01496   0.01188  -0.1524  0.6277  0.8346
   9.810   1.6080   0.01545   0.01237  -0.1500  0.6252  0.8347
   9.820   1.6171   0.01519   0.01212  -0.1514  0.6267  0.8346
   9.830   1.6117   0.01541   0.01233  -0.1503  0.6257  0.8347
   9.840   1.6159   0.01531   0.01224  -0.1509  0.6263  0.8346
   9.850   1.6142   0.01540   0.01233  -0.1505  0.6259  0.8347
   9.860   1.6234   0.01514   0.01208  -0.1518  0.6274  0.8346
   9.870   1.6178   0.01537   0.01230  -0.1508  0.6264  0.8347
   9.880   1.6235   0.01522   0.01216  -0.1516  0.6272  0.8346
   9.890   1.6231   0.01527   0.01221  -0.1514  0.6271  0.8346
   9.900   1.6209   0.01539   0.01233  -0.1509  0.6266  0.8347
   9.910   1.6199   0.01546   0.01241  -0.1506  0.6264  0.8347
   9.920   1.6196   0.01551   0.01246  -0.1504  0.6262  0.8347
   9.930   1.6202   0.01553   0.01248  -0.1503  0.6262  0.8347
   9.940   1.6211   0.01554   0.01249  -0.1503  0.6263  0.8347
   9.950   1.6145   0.01580   0.01274  -0.1491  0.6247  0.8347
   9.960   1.6220   0.01560   0.01255  -0.1502  0.6263  0.8347
   9.970   1.6171   0.01580   0.01274  -0.1493  0.6250  0.8348
   9.980   1.6222   0.01567   0.01262  -0.1500  0.6261  0.8347
   9.990   1.6161   0.01590   0.01284  -0.1488  0.6243  0.8348
  10.000   1.6169   0.01591   0.01284  -0.1488  0.6240  0.8348
  10.010   1.6217   0.01581   0.01276  -0.1495  0.6255  0.8348
  10.020   1.6210   0.01587   0.01282  -0.1492  0.6252  0.8348
  10.030   1.6202   0.01594   0.01289  -0.1489  0.6249  0.8348
  10.040   1.6192   0.01601   0.01297  -0.1486  0.6245  0.8348
  10.050   1.6229   0.01593   0.01289  -0.1491  0.6252  0.8348
  10.060   1.6191   0.01605   0.01297  -0.1483  0.6223  0.8348
  10.070   1.6208   0.01607   0.01303  -0.1485  0.6242  0.8348
  10.080   1.6213   0.01610   0.01306  -0.1484  0.6242  0.8348
  10.090   1.6112   0.01651   0.01345  -0.1467  0.6218  0.8349
  10.100   1.6230   0.01611   0.01307  -0.1484  0.6239  0.8348
  10.110   1.6242   0.01610   0.01305  -0.1485  0.6238  0.8349
  10.120   1.6258   0.01608   0.01302  -0.1486  0.6235  0.8348
  10.130   1.6261   0.01611   0.01306  -0.1485  0.6236  0.8349
  10.140   1.6258   0.01617   0.01313  -0.1483  0.6238  0.8349
  10.150   1.6282   0.01611   0.01306  -0.1486  0.6234  0.8349
  10.160   1.6297   0.01609   0.01304  -0.1486  0.6233  0.8349
  10.170   1.6344   0.01593   0.01287  -0.1493  0.6227  0.8348
  10.180   1.5884   0.01790   0.01489  -0.1419  0.6201  0.8351
  10.190   1.6009   0.01741   0.01439  -0.1437  0.6209  0.8350
  10.200   1.6362   0.01600   0.01294  -0.1491  0.6227  0.8349
  10.210   1.6131   0.01699   0.01396  -0.1454  0.6216  0.8350
  10.220   1.5718   0.01884   0.01584  -0.1388  0.6184  0.8352
  10.230   1.6269   0.01651   0.01347  -0.1472  0.6222  0.8349
  10.240   1.6389   0.01607   0.01302  -0.1490  0.6227  0.8349
  10.250   1.6105   0.01729   0.01427  -0.1444  0.6213  0.8350
  10.260   1.6210   0.01689   0.01386  -0.1459  0.6218  0.8350
