  
       XFOIL         Version 6.94
  
 Calculated polar for: 1080                                            
  
 1 1 Reynolds number fixed          Mach number fixed         
  
 xtrf =   1.000 (top)        1.000 (bottom)  
 Mach =   0.000     Re =     2.000 e 6     Ncrit =   9.000
  
  alpha     CL        CD       CDp       CM    Top_Xtr Bot_Xtr
 ------- -------- --------- --------- -------- ------- -------
   6.010   1.3713   0.00899   0.00434  -0.1235  0.3796  0.7868
   6.020   1.3725   0.00899   0.00434  -0.1236  0.3799  0.7871
   6.030   1.3738   0.00899   0.00434  -0.1236  0.3804  0.7873
   6.040   1.3743   0.00901   0.00436  -0.1235  0.3789  0.7874
   6.050   1.3754   0.00902   0.00436  -0.1235  0.3791  0.7878
   6.060   1.3768   0.00901   0.00436  -0.1236  0.3797  0.7879
   6.070   1.3780   0.00901   0.00436  -0.1236  0.3800  0.7882
   6.080   1.3792   0.00900   0.00436  -0.1236  0.3805  0.7884
   6.090   1.3785   0.00908   0.00441  -0.1233  0.3767  0.7885
   6.100   1.3797   0.00908   0.00441  -0.1233  0.3768  0.7888
   6.110   1.3805   0.00909   0.00442  -0.1233  0.3764  0.7890
   6.120   1.3823   0.00907   0.00441  -0.1234  0.3776  0.7892
   6.130   1.3817   0.00914   0.00446  -0.1231  0.3749  0.7894
   6.140   1.3844   0.00908   0.00442  -0.1234  0.3775  0.7895
   6.150   1.3839   0.00914   0.00446  -0.1232  0.3751  0.7898
   6.160   1.3842   0.00917   0.00449  -0.1230  0.3738  0.7900
   6.180   1.3865   0.00918   0.00450  -0.1230  0.3740  0.7904
   6.190   1.3884   0.00915   0.00448  -0.1232  0.3753  0.7905
   6.200   1.3883   0.00920   0.00451  -0.1230  0.3733  0.7908
   6.210   1.3897   0.00919   0.00451  -0.1231  0.3741  0.7909
   6.220   1.3900   0.00922   0.00453  -0.1229  0.3723  0.7912
   6.230   1.3912   0.00922   0.00453  -0.1230  0.3727  0.7913
   6.240   1.3919   0.00924   0.00455  -0.1229  0.3716  0.7914
   6.250   1.3928   0.00925   0.00455  -0.1229  0.3713  0.7917
   6.260   1.3939   0.00925   0.00456  -0.1229  0.3712  0.7918
   6.270   1.3947   0.00926   0.00457  -0.1228  0.3708  0.7919
   6.280   1.3961   0.00926   0.00457  -0.1229  0.3714  0.7922
   6.320   1.3985   0.00934   0.00463  -0.1226  0.3682  0.7928
   6.330   1.3990   0.00936   0.00465  -0.1225  0.3674  0.7930
   6.340   1.4014   0.00932   0.00462  -0.1227  0.3693  0.7931
   6.350   1.4000   0.00941   0.00469  -0.1223  0.3658  0.7933
   6.360   1.4017   0.00939   0.00468  -0.1224  0.3667  0.7935
   6.370   1.4017   0.00943   0.00471  -0.1222  0.3650  0.7936
   6.380   1.4032   0.00942   0.00470  -0.1223  0.3659  0.7938
   6.390   1.4035   0.00945   0.00472  -0.1222  0.3642  0.7939
   6.400   1.4045   0.00945   0.00473  -0.1221  0.3640  0.7942
   6.410   1.4059   0.00944   0.00473  -0.1222  0.3650  0.7944
   6.420   1.4069   0.00945   0.00473  -0.1222  0.3647  0.7944
   6.430   1.4074   0.00947   0.00475  -0.1221  0.3637  0.7949
   6.440   1.4071   0.00952   0.00479  -0.1219  0.3611  0.7949
   6.450   1.4092   0.00949   0.00477  -0.1221  0.3631  0.7950
   6.460   1.4115   0.00945   0.00475  -0.1223  0.3658  0.7952
   6.470   1.4096   0.00956   0.00482  -0.1218  0.3602  0.7955
   6.480   1.4125   0.00950   0.00478  -0.1221  0.3634  0.7956
   6.490   1.4116   0.00957   0.00484  -0.1217  0.3600  0.7958
   6.500   1.4140   0.00953   0.00481  -0.1220  0.3621  0.7959
   6.510   1.4153   0.00952   0.00480  -0.1220  0.3628  0.7962
   6.520   1.4149   0.00958   0.00485  -0.1218  0.3603  0.7965
   6.530   1.4145   0.00963   0.00488  -0.1215  0.3585  0.7964
   6.540   1.4158   0.00962   0.00488  -0.1216  0.3588  0.7967
   6.550   1.4169   0.00962   0.00489  -0.1216  0.3589  0.7972
   6.560   1.4173   0.00965   0.00491  -0.1214  0.3581  0.7971
   6.570   1.4140   0.00980   0.00502  -0.1207  0.3512  0.7972
   6.580   1.4178   0.00971   0.00496  -0.1212  0.3553  0.7976
   6.590   1.4204   0.00966   0.00492  -0.1214  0.3582  0.7976
   6.600   1.4203   0.00971   0.00496  -0.1212  0.3560  0.7978
   6.610   1.4217   0.00970   0.00495  -0.1213  0.3568  0.7980
   6.620   1.4219   0.00973   0.00498  -0.1211  0.3552  0.7983
   6.630   1.4235   0.00971   0.00497  -0.1212  0.3564  0.7984
   6.640   1.4245   0.00972   0.00498  -0.1212  0.3563  0.7984
   6.650   1.4242   0.00977   0.00501  -0.1210  0.3539  0.7988
   6.660   1.4266   0.00973   0.00498  -0.1212  0.3565  0.7989
   6.670   1.4273   0.00975   0.00500  -0.1212  0.3557  0.7991
   6.680   1.4276   0.00977   0.00502  -0.1210  0.3545  0.7993
   6.690   1.4274   0.00982   0.00506  -0.1208  0.3525  0.7993
   6.700   1.4281   0.00983   0.00507  -0.1208  0.3521  0.7995
   6.710   1.4302   0.00980   0.00505  -0.1209  0.3537  0.7998
   6.720   1.4311   0.00981   0.00506  -0.1209  0.3536  0.8000
   6.730   1.4314   0.00984   0.00508  -0.1208  0.3524  0.8001
   6.740   1.4302   0.00992   0.00514  -0.1204  0.3499  0.8005
   6.750   1.4293   0.00999   0.00519  -0.1201  0.3467  0.8006
   6.760   1.4312   0.00996   0.00517  -0.1202  0.3483  0.8008
   6.770   1.4337   0.00991   0.00514  -0.1205  0.3504  0.8009
   6.780   1.4333   0.00997   0.00518  -0.1202  0.3483  0.8011
   6.790   1.4362   0.00991   0.00514  -0.1205  0.3509  0.8012
   6.800   1.4359   0.00996   0.00518  -0.1203  0.3495  0.8014
   6.810   1.4366   0.00997   0.00519  -0.1202  0.3489  0.8016
   6.820   1.4353   0.01005   0.00525  -0.1198  0.3450  0.8019
   6.830   1.4388   0.00997   0.00520  -0.1203  0.3493  0.8020
   6.840   1.4396   0.00999   0.00521  -0.1202  0.3490  0.8023
   6.850   1.4391   0.01004   0.00525  -0.1199  0.3463  0.8023
   6.860   1.4410   0.01002   0.00523  -0.1201  0.3477  0.8025
   6.870   1.4416   0.01004   0.00525  -0.1200  0.3470  0.8026
   6.880   1.4426   0.01004   0.00525  -0.1200  0.3471  0.8029
   6.890   1.4451   0.01000   0.00523  -0.1202  0.3497  0.8029
   6.900   1.4422   0.01012   0.00532  -0.1196  0.3438  0.8031
   6.910   1.4434   0.01012   0.00532  -0.1196  0.3439  0.8033
   6.920   1.4415   0.01021   0.00538  -0.1191  0.3414  0.8035
   6.940   1.4454   0.01016   0.00535  -0.1194  0.3430  0.8038
   6.950   1.4475   0.01014   0.00534  -0.1196  0.3442  0.8039
   6.960   1.4459   0.01021   0.00539  -0.1191  0.3418  0.8041
   7.000   1.4486   0.01025   0.00543  -0.1188  0.3407  0.8047
   7.010   1.4499   0.01025   0.00543  -0.1189  0.3413  0.8049
   7.020   1.4515   0.01024   0.00543  -0.1190  0.3418  0.8052
   7.030   1.4471   0.01037   0.00552  -0.1180  0.3358  0.8053
   7.040   1.4511   0.01030   0.00548  -0.1185  0.3391  0.8054
   7.050   1.4534   0.01027   0.00546  -0.1187  0.3410  0.8057
   7.060   1.4535   0.01029   0.00548  -0.1186  0.3399  0.8060
   7.070   1.4527   0.01034   0.00551  -0.1182  0.3378  0.8060
   7.080   1.4540   0.01033   0.00551  -0.1183  0.3383  0.8062
   7.090   1.4526   0.01039   0.00556  -0.1178  0.3359  0.8064
   7.100   1.4553   0.01035   0.00553  -0.1181  0.3377  0.8066
   7.110   1.4554   0.01037   0.00555  -0.1179  0.3369  0.8068
   7.120   1.4522   0.01048   0.00563  -0.1172  0.3335  0.8070
   7.130   1.4562   0.01040   0.00558  -0.1177  0.3360  0.8074
   7.140   1.4484   0.01063   0.00574  -0.1161  0.3275  0.8074
   7.150   1.4494   0.01063   0.00575  -0.1161  0.3275  0.8076
   7.160   1.4582   0.01044   0.00561  -0.1175  0.3353  0.8079
   7.170   1.4526   0.01060   0.00573  -0.1163  0.3289  0.8081
   7.180   1.4590   0.01047   0.00564  -0.1173  0.3346  0.8084
   7.190   1.4612   0.01044   0.00562  -0.1175  0.3356  0.8086
   7.200   1.4571   0.01057   0.00572  -0.1165  0.3310  0.8088
   7.210   1.4635   0.01044   0.00563  -0.1175  0.3361  0.8090
   7.220   1.4617   0.01051   0.00568  -0.1170  0.3340  0.8092
   7.230   1.4592   0.01060   0.00575  -0.1163  0.3303  0.8095
   7.240   1.4634   0.01052   0.00570  -0.1169  0.3339  0.8098
   7.250   1.4610   0.01061   0.00576  -0.1163  0.3303  0.8100
   7.270   1.4629   0.01062   0.00577  -0.1163  0.3305  0.8104
   7.280   1.4595   0.01073   0.00586  -0.1155  0.3265  0.8105
   7.290   1.4611   0.01072   0.00586  -0.1156  0.3270  0.8110
   7.300   1.4589   0.01081   0.00592  -0.1150  0.3249  0.8111
   7.310   1.4650   0.01068   0.00583  -0.1159  0.3290  0.8113
   7.320   1.4599   0.01084   0.00595  -0.1148  0.3240  0.8116
   7.330   1.4649   0.01074   0.00588  -0.1155  0.3273  0.8117
   7.340   1.4640   0.01079   0.00592  -0.1151  0.3260  0.8121
   7.350   1.4697   0.01067   0.00583  -0.1160  0.3302  0.8123
   7.370   1.4626   0.01091   0.00602  -0.1143  0.3221  0.8128
   7.380   1.4671   0.01082   0.00596  -0.1149  0.3257  0.8131
   7.390   1.4686   0.01081   0.00595  -0.1150  0.3262  0.8132
   7.400   1.4686   0.01084   0.00598  -0.1148  0.3256  0.8136
   7.410   1.4653   0.01096   0.00606  -0.1141  0.3212  0.8137
   7.420   1.4638   0.01102   0.00612  -0.1136  0.3192  0.8138
   7.430   1.4685   0.01093   0.00605  -0.1143  0.3228  0.8140
   7.440   1.4672   0.01100   0.00610  -0.1139  0.3205  0.8143
   7.450   1.4679   0.01101   0.00611  -0.1138  0.3204  0.8147
   7.460   1.4670   0.01106   0.00615  -0.1135  0.3189  0.8147
   7.470   1.4714   0.01097   0.00609  -0.1140  0.3221  0.8149
   7.480   1.4672   0.01111   0.00620  -0.1131  0.3179  0.8151
   7.490   1.4712   0.01104   0.00614  -0.1136  0.3203  0.8154
   7.500   1.4711   0.01107   0.00617  -0.1134  0.3194  0.8154
   7.510   1.4734   0.01104   0.00615  -0.1137  0.3207  0.8157
   7.540   1.4704   0.01121   0.00629  -0.1126  0.3164  0.8164
   7.550   1.4794   0.01100   0.00613  -0.1140  0.3233  0.8165
   7.560   1.4757   0.01112   0.00623  -0.1131  0.3189  0.8167
   7.570   1.4733   0.01122   0.00631  -0.1125  0.3168  0.8169
   7.580   1.4748   0.01120   0.00630  -0.1126  0.3173  0.8172
   7.590   1.4723   0.01130   0.00638  -0.1120  0.3137  0.8174
   7.600   1.4732   0.01131   0.00639  -0.1120  0.3137  0.8176
   7.610   1.4826   0.01108   0.00622  -0.1134  0.3212  0.8177
   7.620   1.4773   0.01125   0.00635  -0.1123  0.3164  0.8180
   7.630   1.4780   0.01126   0.00636  -0.1123  0.3163  0.8183
   7.640   1.4828   0.01117   0.00629  -0.1129  0.3191  0.8184
   7.650   1.4736   0.01144   0.00651  -0.1112  0.3106  0.8187
   7.660   1.4776   0.01136   0.00645  -0.1117  0.3131  0.8189
   7.670   1.4792   0.01135   0.00644  -0.1117  0.3139  0.8191
   7.680   1.4763   0.01145   0.00653  -0.1111  0.3108  0.8194
   7.690   1.4854   0.01124   0.00637  -0.1125  0.3180  0.8193
   7.700   1.4786   0.01145   0.00653  -0.1111  0.3112  0.8198
   7.710   1.4808   0.01142   0.00651  -0.1113  0.3123  0.8197
   7.720   1.4760   0.01158   0.00664  -0.1103  0.3083  0.8203
   7.730   1.4766   0.01159   0.00666  -0.1102  0.3081  0.8203
   7.740   1.4832   0.01145   0.00654  -0.1112  0.3122  0.8203
   7.750   1.4820   0.01151   0.00659  -0.1108  0.3107  0.8208
   7.760   1.4830   0.01151   0.00660  -0.1108  0.3108  0.8209
   7.770   1.4865   0.01145   0.00655  -0.1112  0.3129  0.8208
   7.780   1.4852   0.01151   0.00661  -0.1108  0.3111  0.8212
   7.790   1.4793   0.01170   0.00676  -0.1096  0.3056  0.8216
   7.800   1.4827   0.01164   0.00671  -0.1100  0.3084  0.8218
   7.810   1.4832   0.01165   0.00673  -0.1099  0.3080  0.8218
   7.820   1.4804   0.01176   0.00682  -0.1093  0.3044  0.8222
   7.830   1.4888   0.01156   0.00666  -0.1105  0.3107  0.8220
   7.840   1.4842   0.01172   0.00679  -0.1096  0.3064  0.8226
   7.850   1.4846   0.01174   0.00681  -0.1095  0.3059  0.8226
   7.860   1.4871   0.01170   0.00678  -0.1097  0.3077  0.8229
   7.870   1.4856   0.01177   0.00684  -0.1093  0.3053  0.8231
   7.880   1.4877   0.01174   0.00682  -0.1095  0.3066  0.8231
   7.890   1.4900   0.01171   0.00680  -0.1097  0.3082  0.8231
   7.900   1.4879   0.01180   0.00687  -0.1092  0.3052  0.8233
   7.910   1.4869   0.01186   0.00692  -0.1088  0.3037  0.8237
   7.920   1.4891   0.01183   0.00690  -0.1090  0.3048  0.8239
   7.930   1.4922   0.01177   0.00686  -0.1094  0.3070  0.8237
   7.940   1.4849   0.01200   0.00704  -0.1080  0.3011  0.8242
   7.950   1.4895   0.01191   0.00697  -0.1086  0.3033  0.8244
   7.960   1.4922   0.01186   0.00694  -0.1088  0.3047  0.8246
   7.970   1.4861   0.01206   0.00710  -0.1077  0.3001  0.8245
   7.980   1.4899   0.01199   0.00704  -0.1081  0.3020  0.8250
   7.990   1.4914   0.01198   0.00704  -0.1082  0.3024  0.8249
   8.000   1.4884   0.01209   0.00713  -0.1075  0.2999  0.8253
   8.010   1.4885   0.01212   0.00716  -0.1074  0.2993  0.8255
   8.020   1.4924   0.01204   0.00710  -0.1078  0.3017  0.8255
   8.030   1.4914   0.01210   0.00715  -0.1075  0.3006  0.8255
   8.040   1.4883   0.01222   0.00725  -0.1068  0.2968  0.8261
   8.050   1.4897   0.01221   0.00725  -0.1069  0.2974  0.8260
   8.060   1.4931   0.01215   0.00720  -0.1073  0.2999  0.8262
   8.070   1.4972   0.01207   0.00713  -0.1078  0.3021  0.8262
   8.080   1.4944   0.01218   0.00722  -0.1072  0.2996  0.8265
   8.090   1.4931   0.01224   0.00728  -0.1068  0.2976  0.8267
   8.100   1.4930   0.01228   0.00731  -0.1066  0.2969  0.8268
   8.110   1.4964   0.01221   0.00726  -0.1070  0.2992  0.8268
   8.120   1.4981   0.01220   0.00725  -0.1071  0.3002  0.8269
   8.130   1.4924   0.01239   0.00741  -0.1060  0.2949  0.8271
   8.160   1.4915   0.01251   0.00752  -0.1054  0.2932  0.8278
   8.170   1.4910   0.01255   0.00756  -0.1051  0.2924  0.8280
   8.180   1.4972   0.01241   0.00745  -0.1059  0.2955  0.8280
   8.190   1.4961   0.01247   0.00750  -0.1056  0.2944  0.8281
   8.200   1.4928   0.01260   0.00761  -0.1049  0.2920  0.8285
   8.210   1.5008   0.01240   0.00745  -0.1060  0.2964  0.8283
   8.220   1.4948   0.01260   0.00762  -0.1049  0.2925  0.8288
   8.230   1.4978   0.01255   0.00758  -0.1052  0.2937  0.8287
   8.240   1.4923   0.01274   0.00774  -0.1042  0.2890  0.8292
