  
       XFOIL         Version 6.94
  
 Calculated polar for: 1080                                            
  
 1 1 Reynolds number fixed          Mach number fixed         
  
 xtrf =   1.000 (top)        1.000 (bottom)  
 Mach =   0.000     Re =     2.000 e 6     Ncrit =   9.000
  
  alpha     CL        CD       CDp       CM    Top_Xtr Bot_Xtr
 ------- -------- --------- --------- -------- ------- -------
   6.000   1.1024   0.00871   0.00473  -0.0872  0.5819  0.7790
   6.010   1.1026   0.00873   0.00474  -0.0871  0.5815  0.7790
   6.020   1.1042   0.00872   0.00474  -0.0872  0.5817  0.7790
   6.030   1.1048   0.00873   0.00475  -0.0871  0.5815  0.7790
   6.040   1.1055   0.00874   0.00475  -0.0871  0.5814  0.7791
   6.050   1.1066   0.00874   0.00476  -0.0871  0.5814  0.7791
   6.060   1.1070   0.00875   0.00477  -0.0870  0.5811  0.7791
   6.070   1.1075   0.00876   0.00477  -0.0869  0.5807  0.7791
   6.080   1.1087   0.00876   0.00477  -0.0870  0.5808  0.7791
   6.090   1.1099   0.00877   0.00478  -0.0870  0.5809  0.7792
   6.100   1.1107   0.00877   0.00478  -0.0870  0.5807  0.7792
   6.110   1.1114   0.00878   0.00479  -0.0869  0.5804  0.7792
   6.120   1.1125   0.00878   0.00479  -0.0870  0.5805  0.7792
   6.130   1.1135   0.00879   0.00479  -0.0870  0.5803  0.7793
   6.140   1.1145   0.00880   0.00479  -0.0870  0.5800  0.7793
   6.150   1.1156   0.00880   0.00480  -0.0870  0.5801  0.7793
   6.160   1.1167   0.00880   0.00480  -0.0870  0.5798  0.7793
   6.170   1.1179   0.00881   0.00480  -0.0871  0.5798  0.7793
   6.180   1.1192   0.00881   0.00480  -0.0871  0.5795  0.7793
   6.190   1.1205   0.00882   0.00480  -0.0872  0.5794  0.7794
   6.200   1.1216   0.00882   0.00481  -0.0872  0.5794  0.7794
   6.210   1.1220   0.00883   0.00482  -0.0871  0.5793  0.7794
   6.220   1.1223   0.00884   0.00483  -0.0870  0.5792  0.7795
   6.230   1.1234   0.00884   0.00483  -0.0870  0.5792  0.7795
   6.240   1.1247   0.00884   0.00484  -0.0871  0.5792  0.7795
   6.250   1.1237   0.00886   0.00486  -0.0867  0.5790  0.7795
   6.260   1.1241   0.00887   0.00487  -0.0866  0.5789  0.7795
   6.270   1.1246   0.00888   0.00489  -0.0865  0.5788  0.7796
   6.280   1.1260   0.00888   0.00489  -0.0866  0.5788  0.7796
   6.290   1.1267   0.00889   0.00489  -0.0866  0.5788  0.7796
   6.300   1.1264   0.00890   0.00492  -0.0863  0.5786  0.7797
   6.310   1.1266   0.00892   0.00493  -0.0862  0.5785  0.7797
   6.320   1.1266   0.00893   0.00494  -0.0860  0.5783  0.7797
   6.330   1.1289   0.00892   0.00494  -0.0863  0.5785  0.7797
   6.340   1.1283   0.00894   0.00496  -0.0860  0.5782  0.7798
   6.350   1.1283   0.00895   0.00498  -0.0858  0.5781  0.7798
   6.360   1.1304   0.00895   0.00497  -0.0860  0.5782  0.7798
   6.370   1.1309   0.00896   0.00498  -0.0859  0.5781  0.7798
   6.380   1.1315   0.00896   0.00499  -0.0858  0.5781  0.7799
   6.390   1.1321   0.00897   0.00500  -0.0858  0.5780  0.7799
   6.400   1.1316   0.00899   0.00502  -0.0855  0.5776  0.7799
   6.410   1.1321   0.00900   0.00503  -0.0854  0.5775  0.7799
   6.420   1.1334   0.00900   0.00503  -0.0855  0.5776  0.7800
   6.430   1.1336   0.00901   0.00504  -0.0853  0.5774  0.7800
   6.440   1.1343   0.00902   0.00505  -0.0853  0.5773  0.7800
   6.450   1.1358   0.00902   0.00505  -0.0854  0.5774  0.7800
   6.460   1.1365   0.00903   0.00506  -0.0853  0.5773  0.7801
   6.470   1.1368   0.00904   0.00507  -0.0852  0.5771  0.7801
   6.480   1.1368   0.00905   0.00509  -0.0850  0.5769  0.7801
   6.490   1.1385   0.00905   0.00509  -0.0852  0.5770  0.7801
   6.500   1.1388   0.00906   0.00510  -0.0850  0.5768  0.7802
   6.510   1.1392   0.00907   0.00511  -0.0849  0.5767  0.7802
   6.520   1.1409   0.00907   0.00511  -0.0851  0.5768  0.7802
   6.530   1.1413   0.00908   0.00512  -0.0850  0.5767  0.7802
   6.540   1.1416   0.00909   0.00513  -0.0849  0.5765  0.7803
   6.550   1.1429   0.00909   0.00513  -0.0849  0.5765  0.7803
   6.560   1.1435   0.00910   0.00514  -0.0849  0.5764  0.7803
   6.570   1.1446   0.00910   0.00515  -0.0849  0.5764  0.7803
   6.580   1.1452   0.00911   0.00516  -0.0848  0.5763  0.7803
   6.590   1.1458   0.00912   0.00517  -0.0847  0.5762  0.7804
   6.600   1.1460   0.00913   0.00518  -0.0846  0.5760  0.7804
   6.610   1.1472   0.00913   0.00518  -0.0847  0.5760  0.7804
   6.620   1.1474   0.00915   0.00520  -0.0845  0.5758  0.7805
   6.630   1.1490   0.00914   0.00520  -0.0846  0.5760  0.7805
   6.640   1.1485   0.00917   0.00522  -0.0844  0.5755  0.7805
   6.650   1.1500   0.00916   0.00522  -0.0845  0.5757  0.7805
   6.660   1.1508   0.00917   0.00522  -0.0844  0.5756  0.7805
   6.670   1.1517   0.00918   0.00523  -0.0844  0.5756  0.7806
   6.680   1.1524   0.00918   0.00524  -0.0844  0.5755  0.7806
   6.690   1.1527   0.00920   0.00525  -0.0843  0.5752  0.7806
   6.700   1.1542   0.00920   0.00525  -0.0844  0.5754  0.7806
   6.710   1.1548   0.00920   0.00526  -0.0843  0.5753  0.7807
   6.720   1.1553   0.00922   0.00527  -0.0842  0.5751  0.7807
   6.730   1.1561   0.00922   0.00528  -0.0842  0.5750  0.7807
   6.740   1.1571   0.00923   0.00529  -0.0842  0.5750  0.7807
   6.750   1.1577   0.00924   0.00530  -0.0841  0.5749  0.7808
   6.760   1.1586   0.00924   0.00530  -0.0841  0.5749  0.7808
   6.770   1.1586   0.00926   0.00532  -0.0839  0.5745  0.7808
   6.780   1.1601   0.00926   0.00532  -0.0841  0.5747  0.7808
   6.790   1.1602   0.00927   0.00533  -0.0839  0.5744  0.7809
   6.800   1.1615   0.00927   0.00534  -0.0840  0.5745  0.7809
   6.810   1.1619   0.00928   0.00535  -0.0839  0.5743  0.7809
   6.820   1.1626   0.00929   0.00535  -0.0838  0.5742  0.7809
   6.830   1.1635   0.00930   0.00536  -0.0838  0.5742  0.7810
   6.840   1.1647   0.00930   0.00536  -0.0838  0.5742  0.7810
   6.850   1.1650   0.00931   0.00538  -0.0837  0.5740  0.7810
   6.860   1.1658   0.00932   0.00539  -0.0837  0.5739  0.7810
   6.870   1.1668   0.00932   0.00539  -0.0837  0.5739  0.7810
   6.880   1.1680   0.00933   0.00539  -0.0838  0.5740  0.7811
   6.890   1.1679   0.00934   0.00541  -0.0836  0.5736  0.7811
   6.900   1.1691   0.00935   0.00541  -0.0836  0.5737  0.7811
   6.910   1.1693   0.00936   0.00543  -0.0835  0.5734  0.7811
   6.920   1.1710   0.00936   0.00542  -0.0836  0.5737  0.7811
   6.930   1.1714   0.00937   0.00544  -0.0835  0.5735  0.7812
   6.940   1.1725   0.00937   0.00544  -0.0835  0.5735  0.7812
   6.950   1.1730   0.00938   0.00545  -0.0834  0.5733  0.7812
   6.960   1.1742   0.00938   0.00546  -0.0835  0.5734  0.7812
   6.970   1.1744   0.00940   0.00547  -0.0834  0.5731  0.7813
   6.980   1.1754   0.00940   0.00548  -0.0834  0.5731  0.7813
   6.990   1.1763   0.00941   0.00548  -0.0834  0.5731  0.7813
   7.000   1.1763   0.00943   0.00550  -0.0832  0.5727  0.7813
   7.010   1.1772   0.00943   0.00551  -0.0832  0.5727  0.7814
   7.020   1.1789   0.00943   0.00550  -0.0833  0.5729  0.7814
   7.030   1.1792   0.00944   0.00552  -0.0832  0.5727  0.7814
   7.040   1.1806   0.00944   0.00552  -0.0833  0.5728  0.7814
   7.050   1.1812   0.00945   0.00553  -0.0832  0.5727  0.7814
   7.060   1.1814   0.00947   0.00554  -0.0831  0.5724  0.7815
   7.070   1.1824   0.00947   0.00555  -0.0831  0.5724  0.7815
   7.080   1.1830   0.00948   0.00556  -0.0830  0.5722  0.7815
   7.090   1.1835   0.00949   0.00557  -0.0830  0.5721  0.7815
   7.100   1.1844   0.00950   0.00557  -0.0829  0.5721  0.7816
   7.110   1.1856   0.00950   0.00557  -0.0830  0.5721  0.7816
   7.120   1.1868   0.00950   0.00558  -0.0830  0.5722  0.7816
   7.130   1.1858   0.00954   0.00561  -0.0827  0.5715  0.7816
   7.140   1.1878   0.00953   0.00560  -0.0829  0.5718  0.7816
   7.150   1.1887   0.00953   0.00561  -0.0829  0.5718  0.7816
   7.160   1.1887   0.00956   0.00562  -0.0827  0.5715  0.7817
   7.170   1.1898   0.00956   0.00563  -0.0827  0.5715  0.7817
   7.180   1.1908   0.00956   0.00563  -0.0827  0.5715  0.7817
   7.190   1.1914   0.00957   0.00564  -0.0827  0.5713  0.7818
   7.200   1.1924   0.00958   0.00565  -0.0827  0.5714  0.7818
   7.210   1.1935   0.00958   0.00565  -0.0827  0.5714  0.7818
   7.220   1.1929   0.00961   0.00568  -0.0824  0.5708  0.7818
   7.230   1.1948   0.00960   0.00567  -0.0826  0.5711  0.7818
   7.240   1.1955   0.00961   0.00568  -0.0826  0.5710  0.7818
   7.250   1.1962   0.00962   0.00569  -0.0825  0.5709  0.7819
   7.260   1.1974   0.00962   0.00569  -0.0826  0.5709  0.7819
   7.270   1.1978   0.00964   0.00570  -0.0825  0.5707  0.7819
   7.280   1.1991   0.00964   0.00571  -0.0825  0.5708  0.7819
   7.290   1.1998   0.00965   0.00571  -0.0825  0.5707  0.7819
   7.300   1.2007   0.00965   0.00572  -0.0825  0.5706  0.7820
   7.310   1.2011   0.00967   0.00573  -0.0824  0.5703  0.7820
   7.320   1.2022   0.00967   0.00574  -0.0824  0.5703  0.7820
   7.330   1.2033   0.00968   0.00574  -0.0824  0.5704  0.7820
   7.340   1.2041   0.00968   0.00575  -0.0824  0.5702  0.7820
   7.350   1.2051   0.00969   0.00575  -0.0824  0.5702  0.7820
   7.360   1.2060   0.00969   0.00576  -0.0824  0.5702  0.7821
   7.370   1.2069   0.00970   0.00577  -0.0824  0.5700  0.7821
   7.380   1.2076   0.00971   0.00577  -0.0824  0.5699  0.7821
   7.390   1.2079   0.00973   0.00578  -0.0822  0.5693  0.7821
   7.400   1.2098   0.00972   0.00578  -0.0824  0.5699  0.7821
   7.410   1.2105   0.00973   0.00579  -0.0824  0.5697  0.7821
   7.420   1.2115   0.00973   0.00579  -0.0824  0.5695  0.7822
   7.430   1.2123   0.00974   0.00580  -0.0824  0.5693  0.7822
   7.440   1.2135   0.00975   0.00580  -0.0824  0.5693  0.7822
   7.450   1.2146   0.00975   0.00581  -0.0824  0.5693  0.7822
   7.460   1.2153   0.00976   0.00581  -0.0824  0.5693  0.7822
   7.470   1.2149   0.00978   0.00585  -0.0822  0.5690  0.7823
   7.480   1.2161   0.00978   0.00585  -0.0822  0.5691  0.7823
   7.490   1.2162   0.00980   0.00587  -0.0821  0.5689  0.7823
   7.500   1.2182   0.00979   0.00586  -0.0822  0.5691  0.7823
   7.510   1.2184   0.00981   0.00588  -0.0821  0.5689  0.7823
   7.520   1.2183   0.00983   0.00590  -0.0819  0.5687  0.7823
   7.530   1.2197   0.00983   0.00590  -0.0820  0.5688  0.7824
   7.540   1.2205   0.00984   0.00591  -0.0820  0.5687  0.7824
   7.550   1.2213   0.00985   0.00592  -0.0820  0.5687  0.7824
   7.560   1.2222   0.00985   0.00593  -0.0820  0.5687  0.7824
   7.570   1.2229   0.00986   0.00594  -0.0819  0.5686  0.7824
   7.580   1.2235   0.00987   0.00595  -0.0818  0.5685  0.7824
   7.590   1.2244   0.00988   0.00596  -0.0818  0.5684  0.7825
   7.600   1.2247   0.00989   0.00598  -0.0817  0.5683  0.7825
   7.620   1.2266   0.00990   0.00599  -0.0817  0.5682  0.7826
   7.630   1.2275   0.00991   0.00599  -0.0817  0.5682  0.7826
   7.640   1.2284   0.00991   0.00600  -0.0817  0.5682  0.7826
   7.650   1.2287   0.00993   0.00602  -0.0816  0.5680  0.7827
   7.660   1.2304   0.00992   0.00601  -0.0818  0.5682  0.7827
   7.670   1.2300   0.00995   0.00604  -0.0815  0.5678  0.7828
   7.680   1.2317   0.00994   0.00603  -0.0816  0.5680  0.7828
   7.690   1.2317   0.00996   0.00606  -0.0815  0.5678  0.7828
   7.700   1.2328   0.00996   0.00606  -0.0815  0.5678  0.7828
   7.710   1.2333   0.00997   0.00607  -0.0814  0.5677  0.7829
   7.720   1.2332   0.00999   0.00610  -0.0812  0.5674  0.7830
   7.730   1.2349   0.00999   0.00609  -0.0814  0.5675  0.7830
   7.740   1.2354   0.01000   0.00610  -0.0813  0.5674  0.7830
   7.750   1.2361   0.01001   0.00612  -0.0812  0.5673  0.7831
   7.760   1.2364   0.01002   0.00613  -0.0811  0.5672  0.7831
   7.770   1.2371   0.01003   0.00614  -0.0811  0.5671  0.7831
   7.780   1.2379   0.01004   0.00615  -0.0811  0.5670  0.7832
   7.790   1.2394   0.01003   0.00615  -0.0812  0.5671  0.7832
   7.800   1.2393   0.01006   0.00617  -0.0810  0.5668  0.7832
   7.810   1.2406   0.01006   0.00617  -0.0811  0.5669  0.7833
   7.820   1.2412   0.01007   0.00619  -0.0810  0.5668  0.7833
   7.830   1.2415   0.01008   0.00620  -0.0809  0.5666  0.7833
   7.840   1.2424   0.01009   0.00621  -0.0809  0.5665  0.7834
   7.850   1.2435   0.01009   0.00621  -0.0809  0.5666  0.7834
   7.860   1.2443   0.01010   0.00622  -0.0809  0.5665  0.7834
   7.870   1.2443   0.01012   0.00625  -0.0807  0.5662  0.7835
   7.880   1.2459   0.01011   0.00624  -0.0808  0.5664  0.7835
   7.890   1.2458   0.01014   0.00627  -0.0806  0.5660  0.7836
   7.900   1.2473   0.01013   0.00626  -0.0808  0.5662  0.7836
   7.910   1.2471   0.01016   0.00629  -0.0805  0.5657  0.7836
   7.920   1.2492   0.01014   0.00628  -0.0808  0.5662  0.7836
   7.930   1.2494   0.01016   0.00630  -0.0806  0.5659  0.7837
   7.940   1.2502   0.01017   0.00631  -0.0806  0.5658  0.7837
   7.950   1.2508   0.01018   0.00632  -0.0806  0.5657  0.7837
   7.960   1.2518   0.01018   0.00632  -0.0806  0.5657  0.7837
   7.970   1.2521   0.01020   0.00634  -0.0804  0.5654  0.7838
   7.980   1.2534   0.01020   0.00634  -0.0805  0.5656  0.7838
   7.990   1.2526   0.01023   0.00638  -0.0802  0.5649  0.7839
   8.000   1.2551   0.01021   0.00636  -0.0805  0.5655  0.7839
   8.010   1.2554   0.01023   0.00638  -0.0804  0.5652  0.7839
   8.020   1.2563   0.01023   0.00638  -0.0804  0.5652  0.7839
   8.030   1.2574   0.01024   0.00639  -0.0804  0.5652  0.7840
   8.040   1.2581   0.01025   0.00640  -0.0803  0.5651  0.7840
   8.050   1.2588   0.01026   0.00641  -0.0803  0.5650  0.7840
   8.060   1.2602   0.01025   0.00641  -0.0804  0.5652  0.7840
   8.070   1.2602   0.01028   0.00643  -0.0802  0.5648  0.7841
   8.080   1.2606   0.01029   0.00645  -0.0801  0.5646  0.7841
   8.090   1.2621   0.01029   0.00645  -0.0802  0.5648  0.7841
   8.100   1.2617   0.01031   0.00648  -0.0800  0.5643  0.7842
   8.110   1.2638   0.01030   0.00646  -0.0802  0.5647  0.7842
   8.120   1.2641   0.01032   0.00648  -0.0801  0.5644  0.7842
   8.130   1.2651   0.01032   0.00649  -0.0801  0.5644  0.7843
   8.140   1.2650   0.01034   0.00651  -0.0799  0.5640  0.7843
   8.150   1.2665   0.01034   0.00651  -0.0800  0.5642  0.7843
   8.160   1.2667   0.01036   0.00653  -0.0799  0.5640  0.7843
   8.170   1.2676   0.01037   0.00654  -0.0799  0.5639  0.7844
   8.180   1.2684   0.01037   0.00655  -0.0799  0.5639  0.7844
   8.190   1.2694   0.01038   0.00655  -0.0799  0.5639  0.7844
   8.200   1.2701   0.01039   0.00656  -0.0798  0.5638  0.7844
   8.210   1.2706   0.01040   0.00658  -0.0798  0.5636  0.7845
   8.220   1.2717   0.01041   0.00658  -0.0798  0.5637  0.7845
   8.230   1.2721   0.01042   0.00660  -0.0797  0.5635  0.7845
   8.240   1.2727   0.01044   0.00661  -0.0796  0.5633  0.7845
   8.250   1.2736   0.01044   0.00662  -0.0796  0.5633  0.7846
   8.260   1.2738   0.01046   0.00664  -0.0795  0.5631  0.7846
   8.270   1.2745   0.01047   0.00665  -0.0795  0.5630  0.7846
   8.280   1.2751   0.01048   0.00666  -0.0794  0.5629  0.7847
   8.290   1.2759   0.01049   0.00667  -0.0794  0.5628  0.7847
   8.300   1.2769   0.01050   0.00668  -0.0794  0.5628  0.7847
   8.310   1.2775   0.01051   0.00669  -0.0794  0.5627  0.7847
   8.320   1.2776   0.01053   0.00671  -0.0792  0.5624  0.7848
   8.330   1.2785   0.01054   0.00672  -0.0792  0.5624  0.7848
   8.340   1.2797   0.01054   0.00672  -0.0792  0.5625  0.7848
   8.350   1.2808   0.01054   0.00673  -0.0793  0.5625  0.7848
   8.360   1.2806   0.01057   0.00675  -0.0791  0.5621  0.7849
   8.370   1.2817   0.01057   0.00676  -0.0791  0.5622  0.7849
   8.380   1.2824   0.01058   0.00677  -0.0791  0.5621  0.7849
   8.390   1.2833   0.01059   0.00678  -0.0791  0.5621  0.7850
   8.400   1.2834   0.01061   0.00680  -0.0789  0.5618  0.7850
   8.410   1.2844   0.01062   0.00680  -0.0789  0.5618  0.7850
   8.420   1.2858   0.01062   0.00680  -0.0790  0.5620  0.7850
   8.430   1.2860   0.01064   0.00682  -0.0789  0.5617  0.7851
   8.440   1.2872   0.01064   0.00683  -0.0789  0.5618  0.7851
   8.450   1.2875   0.01066   0.00684  -0.0788  0.5615  0.7851
   8.460   1.2883   0.01066   0.00685  -0.0788  0.5615  0.7851
   8.470   1.2887   0.01068   0.00687  -0.0787  0.5613  0.7852
   8.480   1.2899   0.01068   0.00687  -0.0788  0.5614  0.7852
   8.490   1.2895   0.01072   0.00690  -0.0785  0.5609  0.7852
   8.500   1.2905   0.01072   0.00691  -0.0785  0.5609  0.7852
   8.510   1.2920   0.01072   0.00690  -0.0786  0.5611  0.7853
   8.520   1.2923   0.01073   0.00692  -0.0785  0.5609  0.7853
   8.530   1.2924   0.01076   0.00694  -0.0784  0.5605  0.7853
   8.540   1.2941   0.01075   0.00694  -0.0785  0.5608  0.7853
   8.550   1.2942   0.01077   0.00696  -0.0784  0.5604  0.7854
   8.560   1.2955   0.01077   0.00696  -0.0785  0.5606  0.7854
   8.570   1.2955   0.01080   0.00698  -0.0783  0.5602  0.7854
   8.580   1.2969   0.01079   0.00698  -0.0784  0.5604  0.7854
   8.590   1.2968   0.01082   0.00700  -0.0782  0.5599  0.7855
   8.600   1.2979   0.01082   0.00701  -0.0782  0.5600  0.7855
   8.610   1.2988   0.01083   0.00702  -0.0782  0.5599  0.7855
   8.630   1.3007   0.01084   0.00703  -0.0782  0.5599  0.7856
   8.640   1.3014   0.01085   0.00704  -0.0782  0.5597  0.7856
   8.650   1.3018   0.01087   0.00705  -0.0781  0.5594  0.7856
   8.660   1.3030   0.01087   0.00706  -0.0782  0.5596  0.7857
   8.670   1.3038   0.01088   0.00707  -0.0781  0.5594  0.7857
   8.680   1.3036   0.01091   0.00710  -0.0779  0.5591  0.7857
   8.690   1.3054   0.01090   0.00709  -0.0781  0.5593  0.7857
   8.700   1.3061   0.01091   0.00710  -0.0780  0.5593  0.7858
   8.710   1.3063   0.01093   0.00713  -0.0779  0.5590  0.7858
   8.720   1.3062   0.01096   0.00716  -0.0777  0.5587  0.7858
   8.730   1.3076   0.01096   0.00716  -0.0778  0.5589  0.7858
   8.740   1.3075   0.01099   0.00719  -0.0776  0.5585  0.7859
   8.750   1.3096   0.01097   0.00717  -0.0778  0.5589  0.7859
   8.760   1.3102   0.01098   0.00719  -0.0778  0.5588  0.7859
   8.770   1.3105   0.01100   0.00721  -0.0777  0.5586  0.7859
   8.780   1.3112   0.01101   0.00722  -0.0777  0.5585  0.7860
   8.790   1.3118   0.01103   0.00724  -0.0776  0.5584  0.7860
   8.800   1.3121   0.01105   0.00726  -0.0775  0.5582  0.7860
   8.810   1.3134   0.01104   0.00726  -0.0776  0.5583  0.7860
   8.820   1.3136   0.01107   0.00729  -0.0774  0.5580  0.7861
   8.830   1.3138   0.01109   0.00731  -0.0773  0.5578  0.7861
   8.840   1.3149   0.01109   0.00732  -0.0773  0.5578  0.7861
   8.850   1.3157   0.01110   0.00733  -0.0773  0.5578  0.7862
   8.860   1.3164   0.01111   0.00734  -0.0773  0.5577  0.7862
   8.870   1.3174   0.01112   0.00735  -0.0773  0.5577  0.7862
   8.880   1.3178   0.01114   0.00737  -0.0772  0.5575  0.7863
   8.890   1.3185   0.01115   0.00738  -0.0772  0.5574  0.7863
   8.900   1.3189   0.01117   0.00740  -0.0771  0.5572  0.7863
   8.910   1.3199   0.01117   0.00741  -0.0771  0.5572  0.7863
   8.920   1.3204   0.01119   0.00743  -0.0770  0.5570  0.7863
   8.930   1.3218   0.01119   0.00743  -0.0771  0.5572  0.7864
   8.940   1.3223   0.01120   0.00744  -0.0770  0.5570  0.7864
   8.950   1.3230   0.01121   0.00745  -0.0770  0.5569  0.7864
   8.960   1.3237   0.01123   0.00747  -0.0770  0.5567  0.7865
   8.970   1.3242   0.01124   0.00749  -0.0769  0.5566  0.7865
   8.980   1.3246   0.01126   0.00751  -0.0768  0.5563  0.7865
   8.990   1.3248   0.01128   0.00753  -0.0767  0.5559  0.7866
   9.000   1.3262   0.01128   0.00753  -0.0768  0.5562  0.7866
   9.010   1.3267   0.01130   0.00755  -0.0767  0.5560  0.7866
   9.020   1.3271   0.01131   0.00757  -0.0766  0.5557  0.7866
   9.030   1.3282   0.01132   0.00757  -0.0766  0.5558  0.7867
   9.040   1.3287   0.01133   0.00759  -0.0766  0.5556  0.7867
   9.050   1.3299   0.01133   0.00759  -0.0766  0.5557  0.7867
   9.060   1.3306   0.01135   0.00761  -0.0766  0.5556  0.7867
   9.070   1.3292   0.01141   0.00767  -0.0762  0.5543  0.7868
   9.080   1.3318   0.01137   0.00764  -0.0765  0.5552  0.7868
   9.090   1.3322   0.01139   0.00766  -0.0764  0.5549  0.7868
   9.100   1.3338   0.01138   0.00765  -0.0765  0.5553  0.7868
   9.110   1.3340   0.01141   0.00767  -0.0764  0.5549  0.7869
   9.120   1.3340   0.01144   0.00770  -0.0762  0.5545  0.7869
   9.130   1.3355   0.01143   0.00770  -0.0763  0.5548  0.7869
   9.140   1.3361   0.01144   0.00771  -0.0763  0.5546  0.7870
   9.150   1.3369   0.01145   0.00773  -0.0762  0.5545  0.7870
   9.160   1.3378   0.01146   0.00774  -0.0762  0.5545  0.7870
   9.170   1.3385   0.01147   0.00775  -0.0762  0.5544  0.7870
   9.180   1.3377   0.01152   0.00780  -0.0759  0.5536  0.7871
   9.190   1.3398   0.01150   0.00778  -0.0761  0.5542  0.7871
   9.200   1.3405   0.01151   0.00779  -0.0761  0.5540  0.7871
   9.210   1.3412   0.01152   0.00780  -0.0761  0.5539  0.7871
   9.220   1.3414   0.01155   0.00783  -0.0759  0.5536  0.7872
   9.230   1.3426   0.01155   0.00783  -0.0760  0.5538  0.7872
   9.240   1.3428   0.01157   0.00785  -0.0758  0.5535  0.7872
   9.250   1.3439   0.01157   0.00786  -0.0759  0.5536  0.7873
   9.260   1.3423   0.01165   0.00792  -0.0754  0.5526  0.7873
   9.270   1.3449   0.01161   0.00789  -0.0757  0.5532  0.7873
   9.280   1.3444   0.01165   0.00793  -0.0755  0.5527  0.7874
   9.290   1.3459   0.01164   0.00793  -0.0756  0.5530  0.7874
   9.300   1.3466   0.01166   0.00794  -0.0756  0.5529  0.7874
   9.310   1.3455   0.01172   0.00800  -0.0752  0.5522  0.7874
   9.320   1.3471   0.01171   0.00799  -0.0753  0.5524  0.7875
   9.330   1.3467   0.01174   0.00803  -0.0751  0.5520  0.7875
   9.340   1.3481   0.01174   0.00802  -0.0752  0.5521  0.7875
   9.350   1.3496   0.01173   0.00802  -0.0753  0.5523  0.7875
   9.360   1.3491   0.01178   0.00806  -0.0751  0.5518  0.7876
   9.370   1.3499   0.01179   0.00807  -0.0750  0.5518  0.7876
   9.380   1.3497   0.01182   0.00810  -0.0749  0.5514  0.7877
   9.390   1.3502   0.01184   0.00812  -0.0748  0.5513  0.7877
   9.400   1.3523   0.01182   0.00811  -0.0750  0.5517  0.7877
   9.410   1.3523   0.01185   0.00813  -0.0748  0.5514  0.7877
   9.420   1.3528   0.01186   0.00815  -0.0748  0.5513  0.7878
   9.430   1.3526   0.01190   0.00818  -0.0746  0.5509  0.7878
   9.440   1.3500   0.01200   0.00827  -0.0740  0.5497  0.7879
   9.450   1.3543   0.01192   0.00820  -0.0745  0.5508  0.7879
   9.460   1.3544   0.01195   0.00823  -0.0744  0.5506  0.7879
   9.470   1.3550   0.01196   0.00824  -0.0744  0.5505  0.7879
   9.480   1.3559   0.01197   0.00825  -0.0743  0.5505  0.7879
   9.490   1.3542   0.01204   0.00832  -0.0739  0.5495  0.7880
   9.500   1.3569   0.01200   0.00829  -0.0742  0.5502  0.7880
   9.510   1.3576   0.01202   0.00830  -0.0742  0.5501  0.7880
   9.520   1.3577   0.01205   0.00833  -0.0740  0.5498  0.7881
   9.530   1.3577   0.01208   0.00836  -0.0739  0.5494  0.7881
   9.540   1.3584   0.01209   0.00837  -0.0739  0.5493  0.7881
   9.550   1.3597   0.01209   0.00837  -0.0739  0.5495  0.7881
   9.560   1.3605   0.01209   0.00838  -0.0739  0.5495  0.7882
   9.570   1.3606   0.01213   0.00842  -0.0738  0.5490  0.7882
   9.580   1.3613   0.01214   0.00843  -0.0737  0.5488  0.7882
   9.590   1.3623   0.01215   0.00844  -0.0737  0.5488  0.7883
   9.600   1.3629   0.01216   0.00846  -0.0737  0.5487  0.7883
   9.610   1.3634   0.01218   0.00848  -0.0736  0.5484  0.7883
   9.620   1.3637   0.01221   0.00851  -0.0735  0.5479  0.7884
   9.630   1.3649   0.01221   0.00851  -0.0736  0.5481  0.7884
   9.640   1.3665   0.01219   0.00849  -0.0737  0.5486  0.7884
   9.650   1.3666   0.01222   0.00853  -0.0736  0.5481  0.7884
   9.660   1.3670   0.01224   0.00855  -0.0735  0.5477  0.7885
   9.670   1.3683   0.01224   0.00855  -0.0736  0.5480  0.7885
   9.680   1.3691   0.01225   0.00856  -0.0735  0.5480  0.7885
   9.690   1.3683   0.01231   0.00862  -0.0733  0.5468  0.7886
   9.700   1.3703   0.01228   0.00860  -0.0734  0.5476  0.7886
   9.710   1.3702   0.01232   0.00864  -0.0733  0.5469  0.7886
   9.720   1.3714   0.01232   0.00864  -0.0733  0.5472  0.7886
   9.730   1.3713   0.01236   0.00868  -0.0732  0.5465  0.7887
   9.740   1.3731   0.01234   0.00866  -0.0733  0.5471  0.7887
   9.750   1.3728   0.01238   0.00871  -0.0731  0.5463  0.7887
   9.760   1.3744   0.01237   0.00870  -0.0732  0.5468  0.7888
   9.770   1.3749   0.01239   0.00872  -0.0732  0.5466  0.7888
   9.780   1.3752   0.01241   0.00874  -0.0731  0.5462  0.7888
   9.790   1.3762   0.01241   0.00875  -0.0731  0.5463  0.7888
   9.800   1.3773   0.01242   0.00875  -0.0731  0.5464  0.7889
   9.810   1.3760   0.01249   0.00882  -0.0727  0.5451  0.7889
   9.820   1.3771   0.01249   0.00883  -0.0728  0.5452  0.7889
   9.830   1.3785   0.01248   0.00882  -0.0729  0.5456  0.7890
   9.840   1.3784   0.01252   0.00886  -0.0727  0.5449  0.7890
   9.850   1.3788   0.01254   0.00888  -0.0726  0.5447  0.7890
   9.860   1.3800   0.01254   0.00888  -0.0727  0.5449  0.7891
   9.870   1.3808   0.01255   0.00889  -0.0726  0.5449  0.7891
   9.880   1.3806   0.01259   0.00893  -0.0725  0.5443  0.7891
   9.890   1.3783   0.01270   0.00903  -0.0719  0.5427  0.7892
   9.900   1.3821   0.01262   0.00896  -0.0724  0.5441  0.7892
   9.910   1.3824   0.01264   0.00898  -0.0723  0.5438  0.7892
   9.920   1.3831   0.01266   0.00900  -0.0723  0.5438  0.7893
   9.930   1.3833   0.01268   0.00903  -0.0721  0.5434  0.7893
   9.940   1.3843   0.01269   0.00903  -0.0722  0.5435  0.7893
   9.950   1.3845   0.01272   0.00906  -0.0720  0.5431  0.7893
   9.960   1.3839   0.01277   0.00911  -0.0718  0.5425  0.7894
   9.970   1.3823   0.01285   0.00918  -0.0714  0.5415  0.7894
   9.980   1.3857   0.01278   0.00913  -0.0718  0.5425  0.7894
   9.990   1.3855   0.01282   0.00917  -0.0716  0.5421  0.7895
  10.000   1.3856   0.01286   0.00919  -0.0715  0.5418  0.7895
  10.010   1.3879   0.01282   0.00917  -0.0717  0.5424  0.7895
  10.020   1.3884   0.01284   0.00919  -0.0717  0.5422  0.7895
  10.030   1.3834   0.01303   0.00935  -0.0707  0.5402  0.7896
  10.040   1.3889   0.01290   0.00924  -0.0715  0.5417  0.7896
  10.050   1.3882   0.01295   0.00929  -0.0712  0.5411  0.7897
  10.060   1.3902   0.01293   0.00927  -0.0714  0.5416  0.7897
  10.070   1.3813   0.01325   0.00957  -0.0697  0.5359  0.7898
  10.080   1.3903   0.01299   0.00934  -0.0711  0.5410  0.7897
  10.090   1.3891   0.01307   0.00940  -0.0707  0.5404  0.7898
  10.100   1.3913   0.01303   0.00938  -0.0710  0.5408  0.7898
  10.110   1.3881   0.01317   0.00950  -0.0703  0.5393  0.7899
  10.120   1.3918   0.01309   0.00943  -0.0708  0.5405  0.7898
  10.130   1.3895   0.01320   0.00954  -0.0702  0.5389  0.7899
  10.140   1.3892   0.01324   0.00959  -0.0700  0.5377  0.7900
  10.150   1.3914   0.01321   0.00955  -0.0702  0.5394  0.7900
  10.160   1.3919   0.01323   0.00958  -0.0702  0.5389  0.7900
  10.170   1.3932   0.01322   0.00957  -0.0702  0.5394  0.7900
  10.180   1.3940   0.01323   0.00958  -0.0702  0.5395  0.7900
  10.190   1.3944   0.01326   0.00961  -0.0701  0.5388  0.7901
  10.200   1.3958   0.01325   0.00960  -0.0702  0.5395  0.7901
  10.210   1.3818   0.01375   0.01007  -0.0678  0.5305  0.7903
  10.220   1.3963   0.01331   0.00967  -0.0700  0.5382  0.7902
  10.230   1.3971   0.01332   0.00968  -0.0700  0.5380  0.7902
  10.240   1.3982   0.01332   0.00968  -0.0700  0.5383  0.7902
  10.250   1.3982   0.01336   0.00972  -0.0699  0.5374  0.7902
  10.260   1.3803   0.01400   0.01031  -0.0668  0.5261  0.7904
  10.270   1.3973   0.01347   0.00983  -0.0694  0.5353  0.7903
  10.280   1.4007   0.01339   0.00976  -0.0699  0.5375  0.7903
  10.290   1.3983   0.01351   0.00987  -0.0693  0.5349  0.7904
  10.300   1.4020   0.01343   0.00979  -0.0698  0.5370  0.7904
  10.310   1.4001   0.01352   0.00989  -0.0693  0.5350  0.7904
  10.320   1.4035   0.01345   0.00982  -0.0697  0.5368  0.7905
  10.330   1.4036   0.01349   0.00986  -0.0696  0.5363  0.7905
  10.340   1.4044   0.01350   0.00987  -0.0696  0.5363  0.7905
  10.350   1.3996   0.01369   0.01005  -0.0687  0.5329  0.7906
  10.360   1.4024   0.01364   0.01001  -0.0690  0.5338  0.7906
  10.370   1.4053   0.01358   0.00996  -0.0693  0.5351  0.7906
  10.380   1.4025   0.01371   0.01008  -0.0687  0.5330  0.7907
  10.390   1.4068   0.01361   0.00998  -0.0693  0.5350  0.7907
  10.400   1.4051   0.01370   0.01007  -0.0688  0.5335  0.7907
  10.410   1.4063   0.01370   0.01008  -0.0689  0.5336  0.7907
  10.420   1.4046   0.01379   0.01016  -0.0685  0.5324  0.7908
  10.430   1.4092   0.01368   0.01006  -0.0691  0.5343  0.7908
  10.440   1.4048   0.01386   0.01023  -0.0682  0.5318  0.7908
  10.450   1.4028   0.01397   0.01032  -0.0677  0.5310  0.7909
