  
       XFOIL         Version 6.94
  
 Calculated polar for: 1080                                            
  
 1 1 Reynolds number fixed          Mach number fixed         
  
 xtrf =   1.000 (top)        1.000 (bottom)  
 Mach =   0.000     Re =     2.000 e 6     Ncrit =   9.000
  
  alpha     CL        CD       CDp       CM    Top_Xtr Bot_Xtr
 ------- -------- --------- --------- -------- ------- -------
   6.030   1.4683   0.01016   0.00504  -0.1157  0.3260  0.7559
   6.040   1.4693   0.01017   0.00504  -0.1157  0.3260  0.7559
   6.050   1.4703   0.01018   0.00505  -0.1156  0.3256  0.7560
   6.060   1.4715   0.01017   0.00505  -0.1157  0.3262  0.7561
   6.070   1.4726   0.01018   0.00506  -0.1157  0.3263  0.7561
   6.080   1.4732   0.01020   0.00507  -0.1156  0.3250  0.7562
   6.090   1.4743   0.01020   0.00508  -0.1156  0.3250  0.7563
   6.100   1.4754   0.01020   0.00508  -0.1157  0.3253  0.7563
   6.110   1.4766   0.01020   0.00508  -0.1157  0.3257  0.7564
   6.120   1.4774   0.01022   0.00510  -0.1156  0.3248  0.7565
   6.130   1.4783   0.01023   0.00511  -0.1156  0.3245  0.7565
   6.140   1.4796   0.01022   0.00510  -0.1157  0.3251  0.7566
   6.150   1.4805   0.01024   0.00512  -0.1156  0.3247  0.7567
   6.160   1.4814   0.01025   0.00513  -0.1156  0.3244  0.7568
   6.170   1.4827   0.01024   0.00512  -0.1157  0.3251  0.7568
   6.180   1.4833   0.01026   0.00514  -0.1156  0.3240  0.7569
   6.190   1.4843   0.01027   0.00515  -0.1156  0.3239  0.7570
   6.200   1.4856   0.01027   0.00515  -0.1156  0.3243  0.7570
   6.210   1.4867   0.01027   0.00515  -0.1157  0.3244  0.7571
   6.220   1.4874   0.01029   0.00517  -0.1156  0.3238  0.7572
   6.230   1.4881   0.01031   0.00518  -0.1155  0.3231  0.7572
   6.240   1.4890   0.01032   0.00519  -0.1155  0.3227  0.7573
   6.250   1.4903   0.01032   0.00519  -0.1156  0.3231  0.7574
   6.260   1.4911   0.01033   0.00520  -0.1155  0.3228  0.7575
   6.270   1.4921   0.01034   0.00521  -0.1155  0.3227  0.7575
   6.280   1.4931   0.01035   0.00522  -0.1155  0.3225  0.7576
   6.290   1.4937   0.01037   0.00523  -0.1155  0.3219  0.7577
   6.300   1.4951   0.01036   0.00523  -0.1155  0.3224  0.7577
   6.310   1.4962   0.01036   0.00523  -0.1155  0.3225  0.7578
   6.320   1.4967   0.01039   0.00525  -0.1155  0.3217  0.7579
   6.330   1.4976   0.01040   0.00526  -0.1154  0.3215  0.7579
   6.340   1.4987   0.01040   0.00527  -0.1154  0.3216  0.7580
   6.350   1.4994   0.01042   0.00528  -0.1154  0.3211  0.7581
   6.360   1.5001   0.01044   0.00530  -0.1153  0.3207  0.7582
   6.370   1.5017   0.01042   0.00529  -0.1154  0.3213  0.7582
   6.380   1.5020   0.01046   0.00532  -0.1153  0.3205  0.7583
   6.390   1.5034   0.01045   0.00531  -0.1154  0.3209  0.7584
   6.400   1.5042   0.01046   0.00532  -0.1153  0.3207  0.7584
   6.410   1.5052   0.01047   0.00533  -0.1153  0.3205  0.7585
   6.420   1.5060   0.01049   0.00534  -0.1153  0.3203  0.7586
   6.430   1.5070   0.01049   0.00535  -0.1153  0.3202  0.7586
   6.440   1.5079   0.01050   0.00536  -0.1153  0.3200  0.7587
   6.450   1.5089   0.01051   0.00537  -0.1153  0.3199  0.7588
   6.460   1.5094   0.01054   0.00539  -0.1152  0.3194  0.7589
   6.470   1.5107   0.01053   0.00539  -0.1152  0.3197  0.7589
   6.480   1.5114   0.01055   0.00540  -0.1152  0.3193  0.7590
   6.490   1.5124   0.01056   0.00541  -0.1152  0.3192  0.7591
   6.500   1.5134   0.01057   0.00542  -0.1152  0.3192  0.7592
   6.510   1.5142   0.01058   0.00543  -0.1151  0.3189  0.7592
   6.520   1.5150   0.01059   0.00544  -0.1151  0.3187  0.7593
   6.530   1.5161   0.01060   0.00545  -0.1151  0.3187  0.7594
   6.540   1.5171   0.01060   0.00545  -0.1151  0.3188  0.7594
   6.550   1.5181   0.01061   0.00546  -0.1151  0.3185  0.7595
   6.560   1.5191   0.01062   0.00546  -0.1151  0.3186  0.7596
   6.570   1.5201   0.01062   0.00547  -0.1151  0.3182  0.7596
   6.580   1.5211   0.01063   0.00548  -0.1151  0.3183  0.7597
   6.590   1.5221   0.01064   0.00548  -0.1151  0.3180  0.7598
   6.600   1.5231   0.01064   0.00549  -0.1151  0.3180  0.7598
   6.610   1.5241   0.01065   0.00550  -0.1151  0.3180  0.7599
   6.620   1.5251   0.01065   0.00550  -0.1151  0.3177  0.7600
   6.630   1.5261   0.01066   0.00551  -0.1151  0.3176  0.7600
   6.640   1.5271   0.01067   0.00552  -0.1151  0.3174  0.7601
   6.650   1.5281   0.01067   0.00552  -0.1151  0.3175  0.7602
   6.660   1.5291   0.01068   0.00553  -0.1151  0.3173  0.7602
   6.670   1.5301   0.01069   0.00554  -0.1150  0.3169  0.7603
   6.680   1.5311   0.01069   0.00554  -0.1151  0.3171  0.7604
   6.690   1.5322   0.01070   0.00555  -0.1151  0.3171  0.7604
   6.700   1.5331   0.01071   0.00555  -0.1150  0.3168  0.7605
   6.710   1.5342   0.01071   0.00556  -0.1151  0.3170  0.7606
   6.720   1.5350   0.01072   0.00557  -0.1150  0.3164  0.7606
   6.730   1.5360   0.01073   0.00558  -0.1150  0.3165  0.7607
   6.740   1.5371   0.01073   0.00558  -0.1150  0.3165  0.7608
   6.750   1.5379   0.01074   0.00559  -0.1150  0.3161  0.7608
   6.760   1.5391   0.01074   0.00559  -0.1150  0.3164  0.7609
   6.770   1.5399   0.01075   0.00560  -0.1150  0.3160  0.7609
