  
       XFOIL         Version 6.94
  
 Calculated polar for: 1080                                            
  
 1 1 Reynolds number fixed          Mach number fixed         
  
 xtrf =   1.000 (top)        1.000 (bottom)  
 Mach =   0.000     Re =     2.000 e 6     Ncrit =   9.000
  
  alpha     CL        CD       CDp       CM    Top_Xtr Bot_Xtr
 ------- -------- --------- --------- -------- ------- -------
   6.000   1.3078   0.00767   0.00416  -0.1503  0.6373  0.8358
   6.010   1.3076   0.00767   0.00416  -0.1500  0.6368  0.8358
   6.020   1.3076   0.00767   0.00415  -0.1498  0.6365  0.8358
   6.030   1.3087   0.00768   0.00416  -0.1498  0.6365  0.8358
   6.040   1.3075   0.00769   0.00416  -0.1494  0.6357  0.8359
   6.050   1.3137   0.00768   0.00418  -0.1505  0.6376  0.8358
   6.060   1.3141   0.00768   0.00418  -0.1503  0.6373  0.8358
   6.070   1.3114   0.00769   0.00417  -0.1496  0.6359  0.8358
   6.080   1.3113   0.00770   0.00418  -0.1493  0.6356  0.8359
   6.090   1.3123   0.00770   0.00418  -0.1493  0.6356  0.8359
   6.100   1.3076   0.00772   0.00422  -0.1481  0.6328  0.8359
   6.110   1.3114   0.00771   0.00421  -0.1488  0.6344  0.8359
   6.120   1.3160   0.00771   0.00419  -0.1495  0.6358  0.8359
   6.130   1.3139   0.00772   0.00422  -0.1489  0.6346  0.8359
   6.140   1.3179   0.00771   0.00420  -0.1495  0.6358  0.8359
   6.150   1.3158   0.00773   0.00423  -0.1488  0.6345  0.8359
   6.160   1.3166   0.00773   0.00423  -0.1488  0.6344  0.8359
   6.170   1.3150   0.00774   0.00425  -0.1483  0.6331  0.8359
   6.180   1.3172   0.00774   0.00425  -0.1485  0.6337  0.8359
   6.190   1.3175   0.00774   0.00425  -0.1484  0.6333  0.8359
   6.200   1.3172   0.00775   0.00426  -0.1481  0.6326  0.8360
   6.210   1.3166   0.00776   0.00427  -0.1478  0.6318  0.8360
   6.220   1.3224   0.00775   0.00426  -0.1488  0.6343  0.8359
   6.230   1.3185   0.00777   0.00428  -0.1478  0.6318  0.8360
   6.240   1.3170   0.00778   0.00429  -0.1473  0.6306  0.8360
   6.250   1.3284   0.00775   0.00425  -0.1494  0.6355  0.8359
   6.260   1.3226   0.00777   0.00429  -0.1480  0.6324  0.8360
   6.270   1.3152   0.00782   0.00432  -0.1463  0.6278  0.8361
   6.280   1.3206   0.00779   0.00431  -0.1472  0.6305  0.8360
   6.290   1.3230   0.00779   0.00431  -0.1475  0.6311  0.8360
   6.300   1.3273   0.00778   0.00431  -0.1482  0.6328  0.8360
   6.310   1.3245   0.00780   0.00432  -0.1474  0.6309  0.8360
   6.320   1.3258   0.00780   0.00432  -0.1475  0.6310  0.8360
   6.330   1.3318   0.00779   0.00431  -0.1485  0.6336  0.8360
   6.340   1.3271   0.00781   0.00433  -0.1474  0.6308  0.8360
   6.350   1.3269   0.00782   0.00434  -0.1471  0.6302  0.8361
   6.360   1.3293   0.00782   0.00434  -0.1474  0.6308  0.8360
   6.370   1.3242   0.00786   0.00437  -0.1461  0.6270  0.8361
   6.380   1.3278   0.00785   0.00436  -0.1467  0.6295  0.8361
   6.390   1.3304   0.00784   0.00436  -0.1470  0.6301  0.8361
   6.400   1.3310   0.00784   0.00436  -0.1469  0.6299  0.8361
   6.410   1.3285   0.00787   0.00439  -0.1462  0.6276  0.8361
   6.420   1.3316   0.00786   0.00437  -0.1467  0.6295  0.8361
   6.430   1.3373   0.00784   0.00437  -0.1476  0.6314  0.8360
   6.440   1.3301   0.00789   0.00441  -0.1459  0.6263  0.8362
   6.450   1.3316   0.00789   0.00441  -0.1461  0.6267  0.8361
   6.460   1.3334   0.00789   0.00441  -0.1462  0.6276  0.8361
   6.470   1.3337   0.00790   0.00442  -0.1461  0.6270  0.8361
   6.480   1.3342   0.00790   0.00443  -0.1460  0.6266  0.8362
   6.490   1.3375   0.00789   0.00441  -0.1465  0.6290  0.8361
   6.500   1.3384   0.00790   0.00442  -0.1465  0.6289  0.8361
   6.510   1.3370   0.00791   0.00445  -0.1460  0.6265  0.8362
   6.520   1.3375   0.00792   0.00445  -0.1459  0.6261  0.8362
   6.530   1.3393   0.00792   0.00445  -0.1461  0.6269  0.8362
   6.540   1.3396   0.00793   0.00446  -0.1459  0.6263  0.8362
   6.550   1.3416   0.00792   0.00446  -0.1461  0.6271  0.8362
   6.560   1.3419   0.00793   0.00447  -0.1460  0.6266  0.8362
   6.570   1.3413   0.00795   0.00449  -0.1457  0.6254  0.8362
   6.580   1.3359   0.00802   0.00454  -0.1444  0.6214  0.8363
   6.590   1.3420   0.00797   0.00450  -0.1454  0.6246  0.8362
   6.600   1.3351   0.00806   0.00458  -0.1438  0.6188  0.8363
   6.610   1.3484   0.00794   0.00448  -0.1463  0.6283  0.8362
   6.620   1.3359   0.00808   0.00460  -0.1436  0.6180  0.8363
   6.630   1.3403   0.00804   0.00457  -0.1443  0.6211  0.8363
   6.640   1.3486   0.00797   0.00452  -0.1458  0.6258  0.8362
   6.650   1.3404   0.00807   0.00460  -0.1439  0.6193  0.8363
   6.660   1.3368   0.00814   0.00465  -0.1430  0.6165  0.8364
   6.670   1.3448   0.00805   0.00458  -0.1444  0.6224  0.8363
   6.680   1.3353   0.00820   0.00470  -0.1423  0.6132  0.8364
   6.690   1.3450   0.00808   0.00461  -0.1441  0.6201  0.8363
   6.700   1.3474   0.00807   0.00460  -0.1444  0.6219  0.8363
   6.710   1.3404   0.00817   0.00469  -0.1428  0.6161  0.8364
   6.720   1.3496   0.00807   0.00461  -0.1444  0.6224  0.8363
   6.730   1.3447   0.00815   0.00468  -0.1433  0.6171  0.8364
   6.740   1.3508   0.00809   0.00463  -0.1443  0.6215  0.8363
   6.750   1.3442   0.00819   0.00471  -0.1428  0.6160  0.8364
   6.760   1.3512   0.00811   0.00465  -0.1440  0.6197  0.8363
   6.770   1.3542   0.00809   0.00464  -0.1444  0.6224  0.8363
   6.780   1.3467   0.00821   0.00473  -0.1427  0.6159  0.8364
   6.790   1.3515   0.00816   0.00470  -0.1434  0.6178  0.8364
   6.800   1.3538   0.00815   0.00469  -0.1437  0.6187  0.8364
   6.810   1.3531   0.00817   0.00471  -0.1434  0.6177  0.8364
   6.820   1.3500   0.00823   0.00476  -0.1426  0.6155  0.8365
   6.830   1.3374   0.00847   0.00496  -0.1399  0.6045  0.8366
   6.840   1.3590   0.00815   0.00470  -0.1440  0.6200  0.8364
   6.850   1.3497   0.00830   0.00482  -0.1420  0.6123  0.8365
   6.860   1.3541   0.00825   0.00478  -0.1426  0.6160  0.8365
   6.870   1.3550   0.00825   0.00479  -0.1426  0.6159  0.8365
   6.880   1.3542   0.00829   0.00482  -0.1423  0.6137  0.8365
   6.890   1.3432   0.00850   0.00499  -0.1399  0.6048  0.8366
   6.900   1.3611   0.00822   0.00477  -0.1433  0.6175  0.8364
   6.910   1.3514   0.00839   0.00491  -0.1412  0.6100  0.8366
   6.920   1.3499   0.00844   0.00495  -0.1407  0.6079  0.8366
   6.930   1.3642   0.00823   0.00478  -0.1433  0.6177  0.8364
   6.940   1.3426   0.00863   0.00511  -0.1389  0.6016  0.8367
   6.950   1.3538   0.00843   0.00495  -0.1409  0.6094  0.8366
   6.960   1.3465   0.00860   0.00509  -0.1393  0.6032  0.8367
   6.970   1.3375   0.00881   0.00527  -0.1374  0.5966  0.8368
   6.980   1.3637   0.00833   0.00488  -0.1422  0.6142  0.8365
   6.990   1.3315   0.00900   0.00545  -0.1359  0.5914  0.8369
   7.000   1.3439   0.00875   0.00523  -0.1380  0.5985  0.8368
   7.010   1.3571   0.00851   0.00503  -0.1404  0.6071  0.8366
   7.020   1.3540   0.00859   0.00510  -0.1396  0.6044  0.8367
   7.030   1.3341   0.00904   0.00549  -0.1357  0.5909  0.8369
   7.040   1.3389   0.00896   0.00543  -0.1364  0.5933  0.8369
   7.050   1.3408   0.00895   0.00541  -0.1366  0.5939  0.8369
   7.060   1.3464   0.00885   0.00533  -0.1374  0.5970  0.8368
   7.070   1.3545   0.00870   0.00520  -0.1388  0.6018  0.8368
   7.080   1.3127   0.00974   0.00613  -0.1309  0.5771  0.8372
   7.090   1.2969   0.01023   0.00659  -0.1279  0.5693  0.8374
   7.100   1.2900   0.01048   0.00683  -0.1265  0.5659  0.8375
   7.110   1.3128   0.00984   0.00623  -0.1304  0.5759  0.8372
   7.120   1.3256   0.00952   0.00594  -0.1325  0.5818  0.8371
   7.130   1.3224   0.00964   0.00605  -0.1318  0.5796  0.8372
   7.140   1.3184   0.00978   0.00618  -0.1309  0.5775  0.8372
   7.150   1.3463   0.00909   0.00557  -0.1358  0.5918  0.8370
   7.160   1.3436   0.00918   0.00565  -0.1351  0.5899  0.8370
   7.170   1.2763   0.01120   0.00751  -0.1230  0.5580  0.8377
   7.180   1.2662   0.01159   0.00789  -0.1212  0.5540  0.8378
   7.190   1.2197   0.01343   0.00966  -0.1134  0.5370  0.8382
   7.200   1.3326   0.00958   0.00601  -0.1324  0.5819  0.8372
   7.210   1.3029   0.01047   0.00684  -0.1270  0.5676  0.8375
   7.230   1.3339   0.00964   0.00607  -0.1321  0.5813  0.8372
   7.240   1.3328   0.00970   0.00613  -0.1318  0.5803  0.8372
   7.250   1.3010   0.01068   0.00704  -0.1260  0.5653  0.8375
   7.260   1.2716   0.01173   0.00803  -0.1208  0.5535  0.8378
   7.270   1.2679   0.01191   0.00821  -0.1201  0.5517  0.8378
   7.280   1.2905   0.01114   0.00748  -0.1237  0.5601  0.8377
   7.290   1.3048   0.01071   0.00707  -0.1260  0.5656  0.8376
   7.300   1.3180   0.01033   0.00673  -0.1281  0.5710  0.8374
   7.310   1.3135   0.01050   0.00689  -0.1272  0.5686  0.8375
   7.320   1.3091   0.01068   0.00706  -0.1262  0.5663  0.8375
   7.330   1.3418   0.00974   0.00619  -0.1319  0.5810  0.8372
   7.340   1.3065   0.01084   0.00722  -0.1255  0.5647  0.8376
