  
       XFOIL         Version 6.94
  
 Calculated polar for: 1080                                            
  
 1 1 Reynolds number fixed          Mach number fixed         
  
 xtrf =   1.000 (top)        1.000 (bottom)  
 Mach =   0.000     Re =     2.000 e 6     Ncrit =   9.000
  
  alpha     CL        CD       CDp       CM    Top_Xtr Bot_Xtr
 ------- -------- --------- --------- -------- ------- -------
   6.000   1.5464   0.00896   0.00455  -0.1547  0.4351  0.7734
   6.010   1.5475   0.00896   0.00456  -0.1547  0.4350  0.7737
   6.020   1.5486   0.00896   0.00456  -0.1547  0.4349  0.7740
   6.030   1.5496   0.00897   0.00457  -0.1547  0.4347  0.7742
   6.040   1.5506   0.00897   0.00458  -0.1547  0.4346  0.7746
   6.050   1.5517   0.00897   0.00458  -0.1547  0.4345  0.7748
   6.060   1.5527   0.00898   0.00459  -0.1547  0.4344  0.7752
   6.070   1.5537   0.00898   0.00459  -0.1547  0.4342  0.7753
   6.080   1.5547   0.00899   0.00460  -0.1547  0.4341  0.7759
   6.090   1.5558   0.00899   0.00460  -0.1547  0.4340  0.7762
   6.100   1.5568   0.00899   0.00461  -0.1547  0.4339  0.7763
   6.110   1.5578   0.00900   0.00461  -0.1547  0.4337  0.7766
   6.120   1.5588   0.00900   0.00462  -0.1547  0.4336  0.7767
   6.130   1.5598   0.00901   0.00462  -0.1547  0.4334  0.7772
   6.140   1.5608   0.00901   0.00463  -0.1547  0.4333  0.7774
   6.150   1.5618   0.00902   0.00464  -0.1547  0.4331  0.7775
   6.160   1.5628   0.00902   0.00464  -0.1547  0.4330  0.7777
   6.170   1.5638   0.00903   0.00465  -0.1547  0.4328  0.7781
   6.180   1.5648   0.00903   0.00465  -0.1547  0.4327  0.7784
   6.190   1.5658   0.00904   0.00466  -0.1547  0.4326  0.7787
   6.200   1.5668   0.00905   0.00466  -0.1547  0.4324  0.7788
   6.210   1.5678   0.00905   0.00467  -0.1547  0.4323  0.7792
   6.220   1.5688   0.00906   0.00468  -0.1547  0.4322  0.7793
   6.230   1.5698   0.00906   0.00468  -0.1547  0.4320  0.7798
   6.240   1.5707   0.00907   0.00469  -0.1546  0.4318  0.7801
   6.250   1.5717   0.00908   0.00470  -0.1546  0.4316  0.7803
   6.260   1.5727   0.00908   0.00470  -0.1546  0.4316  0.7804
   6.270   1.5736   0.00909   0.00471  -0.1546  0.4314  0.7808
   6.280   1.5746   0.00909   0.00471  -0.1546  0.4312  0.7810
   6.290   1.5755   0.00910   0.00472  -0.1546  0.4311  0.7814
   6.300   1.5765   0.00911   0.00473  -0.1546  0.4309  0.7816
   6.310   1.5774   0.00911   0.00473  -0.1546  0.4307  0.7818
   6.320   1.5784   0.00912   0.00474  -0.1545  0.4306  0.7820
   6.330   1.5793   0.00913   0.00475  -0.1545  0.4305  0.7821
   6.340   1.5802   0.00913   0.00475  -0.1545  0.4303  0.7824
   6.350   1.5812   0.00914   0.00476  -0.1545  0.4302  0.7826
   6.360   1.5821   0.00915   0.00477  -0.1545  0.4300  0.7829
   6.370   1.5830   0.00916   0.00477  -0.1544  0.4299  0.7830
   6.380   1.5839   0.00916   0.00478  -0.1544  0.4296  0.7834
   6.390   1.5848   0.00917   0.00479  -0.1544  0.4295  0.7836
   6.400   1.5856   0.00918   0.00479  -0.1544  0.4293  0.7837
   6.410   1.5866   0.00919   0.00480  -0.1543  0.4292  0.7839
   6.430   1.5883   0.00920   0.00482  -0.1543  0.4289  0.7842
   6.440   1.5892   0.00921   0.00482  -0.1543  0.4287  0.7844
   6.450   1.5899   0.00922   0.00483  -0.1542  0.4285  0.7846
   6.460   1.5908   0.00922   0.00484  -0.1542  0.4284  0.7849
   6.470   1.5917   0.00923   0.00485  -0.1541  0.4283  0.7851
   6.480   1.5925   0.00924   0.00485  -0.1541  0.4281  0.7853
   6.490   1.5933   0.00925   0.00486  -0.1541  0.4280  0.7853
   6.500   1.5940   0.00926   0.00487  -0.1540  0.4278  0.7856
   6.510   1.5949   0.00926   0.00488  -0.1540  0.4276  0.7858
   6.520   1.5956   0.00927   0.00489  -0.1539  0.4274  0.7859
   6.530   1.5963   0.00928   0.00490  -0.1539  0.4272  0.7861
   6.540   1.5971   0.00929   0.00490  -0.1538  0.4271  0.7864
   6.550   1.5980   0.00930   0.00491  -0.1538  0.4271  0.7865
   6.560   1.5987   0.00931   0.00492  -0.1537  0.4268  0.7867
   6.570   1.5993   0.00932   0.00493  -0.1536  0.4266  0.7869
   6.580   1.6001   0.00933   0.00494  -0.1536  0.4265  0.7871
   6.590   1.6008   0.00933   0.00495  -0.1535  0.4263  0.7874
   6.600   1.6015   0.00935   0.00496  -0.1535  0.4261  0.7875
   6.610   1.6023   0.00935   0.00496  -0.1534  0.4260  0.7877
   6.620   1.6029   0.00936   0.00497  -0.1533  0.4257  0.7879
   6.630   1.6038   0.00937   0.00498  -0.1533  0.4256  0.7880
   6.640   1.6048   0.00937   0.00498  -0.1533  0.4255  0.7884
   6.650   1.6058   0.00937   0.00499  -0.1533  0.4254  0.7884
   6.660   1.6067   0.00938   0.00499  -0.1533  0.4253  0.7887
   6.670   1.6076   0.00938   0.00500  -0.1533  0.4252  0.7889
   6.680   1.6086   0.00939   0.00500  -0.1532  0.4251  0.7891
   6.690   1.6095   0.00939   0.00501  -0.1532  0.4250  0.7893
   6.700   1.6104   0.00940   0.00501  -0.1532  0.4249  0.7894
   6.710   1.6114   0.00940   0.00502  -0.1532  0.4247  0.7898
   6.720   1.6123   0.00940   0.00503  -0.1532  0.4243  0.7900
   6.730   1.6132   0.00941   0.00503  -0.1531  0.4244  0.7901
   6.740   1.6141   0.00941   0.00503  -0.1531  0.4243  0.7902
   6.750   1.6150   0.00942   0.00504  -0.1531  0.4240  0.7905
   6.760   1.6159   0.00942   0.00505  -0.1531  0.4240  0.7906
   6.770   1.6167   0.00943   0.00505  -0.1530  0.4234  0.7909
   6.780   1.6177   0.00943   0.00506  -0.1530  0.4236  0.7912
   6.790   1.6186   0.00944   0.00506  -0.1530  0.4236  0.7914
   6.800   1.6194   0.00944   0.00507  -0.1530  0.4233  0.7914
   6.810   1.6203   0.00945   0.00507  -0.1529  0.4232  0.7916
   6.820   1.6212   0.00945   0.00508  -0.1529  0.4230  0.7917
   6.830   1.6221   0.00946   0.00509  -0.1529  0.4229  0.7921
   6.840   1.6230   0.00947   0.00509  -0.1528  0.4228  0.7923
   6.850   1.6238   0.00947   0.00510  -0.1528  0.4225  0.7925
   6.860   1.6247   0.00948   0.00511  -0.1528  0.4224  0.7926
   6.870   1.6255   0.00949   0.00511  -0.1527  0.4222  0.7930
   6.880   1.6264   0.00949   0.00512  -0.1527  0.4221  0.7930
   6.890   1.6271   0.00950   0.00513  -0.1527  0.4217  0.7932
   6.900   1.6281   0.00950   0.00513  -0.1526  0.4218  0.7934
   6.910   1.6285   0.00952   0.00514  -0.1525  0.4210  0.7935
   6.920   1.6297   0.00952   0.00515  -0.1526  0.4213  0.7938
   6.930   1.6304   0.00953   0.00515  -0.1525  0.4211  0.7939
   6.940   1.6313   0.00954   0.00516  -0.1525  0.4210  0.7940
   6.950   1.6322   0.00954   0.00517  -0.1524  0.4209  0.7941
   6.960   1.6328   0.00955   0.00518  -0.1524  0.4205  0.7944
   6.970   1.6322   0.00959   0.00521  -0.1521  0.4189  0.7946
   6.980   1.6341   0.00958   0.00520  -0.1522  0.4199  0.7947
   6.990   1.6350   0.00958   0.00520  -0.1522  0.4199  0.7947
   7.010   1.6364   0.00960   0.00522  -0.1521  0.4193  0.7952
   7.020   1.6368   0.00962   0.00524  -0.1520  0.4188  0.7954
   7.030   1.6375   0.00963   0.00525  -0.1519  0.4186  0.7956
   7.040   1.6388   0.00962   0.00524  -0.1520  0.4189  0.7957
   7.050   1.6396   0.00963   0.00525  -0.1519  0.4188  0.7959
   7.060   1.6404   0.00964   0.00526  -0.1519  0.4187  0.7960
   7.070   1.6400   0.00968   0.00529  -0.1516  0.4176  0.7962
   7.080   1.6415   0.00967   0.00529  -0.1517  0.4181  0.7963
   7.090   1.6427   0.00966   0.00529  -0.1517  0.4183  0.7964
   7.100   1.6415   0.00972   0.00533  -0.1513  0.4167  0.7966
   7.110   1.6440   0.00969   0.00531  -0.1516  0.4179  0.7968
   7.120   1.6433   0.00973   0.00535  -0.1513  0.4166  0.7970
   7.130   1.6447   0.00973   0.00534  -0.1513  0.4169  0.7972
   7.140   1.6459   0.00972   0.00534  -0.1514  0.4172  0.7973
   7.150   1.6463   0.00974   0.00536  -0.1513  0.4168  0.7975
   7.160   1.6475   0.00974   0.00536  -0.1513  0.4170  0.7976
   7.170   1.6469   0.00978   0.00539  -0.1510  0.4159  0.7976
   7.180   1.6488   0.00976   0.00538  -0.1511  0.4166  0.7979
   7.190   1.6486   0.00979   0.00541  -0.1509  0.4158  0.7981
   7.200   1.6497   0.00979   0.00541  -0.1509  0.4159  0.7983
   7.210   1.6496   0.00982   0.00544  -0.1507  0.4150  0.7984
   7.220   1.6505   0.00983   0.00544  -0.1507  0.4149  0.7985
   7.230   1.6517   0.00983   0.00544  -0.1507  0.4155  0.7988
   7.240   1.6524   0.00984   0.00546  -0.1507  0.4149  0.7989
   7.250   1.6532   0.00985   0.00546  -0.1506  0.4142  0.7991
   7.260   1.6540   0.00986   0.00547  -0.1506  0.4139  0.7992
   7.270   1.6550   0.00986   0.00548  -0.1506  0.4146  0.7995
   7.280   1.6549   0.00989   0.00550  -0.1504  0.4119  0.7996
   7.290   1.6566   0.00987   0.00549  -0.1505  0.4136  0.7997
   7.300   1.6577   0.00987   0.00550  -0.1505  0.4142  0.8000
   7.310   1.6586   0.00988   0.00550  -0.1505  0.4141  0.8001
   7.320   1.6593   0.00989   0.00551  -0.1505  0.4135  0.8003
   7.330   1.6598   0.00990   0.00552  -0.1504  0.4127  0.8004
   7.340   1.6604   0.00992   0.00554  -0.1503  0.4120  0.8006
   7.350   1.6619   0.00991   0.00553  -0.1504  0.4132  0.8007
   7.360   1.6623   0.00993   0.00555  -0.1502  0.4122  0.8009
   7.370   1.6637   0.00992   0.00555  -0.1503  0.4134  0.8012
   7.380   1.6642   0.00993   0.00556  -0.1502  0.4125  0.8013
   7.390   1.6644   0.00996   0.00558  -0.1501  0.4113  0.8015
   7.400   1.6659   0.00995   0.00557  -0.1502  0.4122  0.8017
   7.410   1.6664   0.00996   0.00559  -0.1501  0.4116  0.8018
   7.420   1.6667   0.00998   0.00560  -0.1499  0.4108  0.8019
   7.430   1.6681   0.00998   0.00560  -0.1500  0.4114  0.8022
   7.440   1.6682   0.01000   0.00562  -0.1498  0.4105  0.8022
   7.450   1.6692   0.01001   0.00563  -0.1498  0.4105  0.8024
   7.460   1.6697   0.01002   0.00564  -0.1497  0.4101  0.8026
   7.470   1.6708   0.01002   0.00564  -0.1497  0.4104  0.8029
   7.480   1.6714   0.01003   0.00565  -0.1497  0.4100  0.8029
   7.490   1.6705   0.01008   0.00569  -0.1493  0.4084  0.8031
   7.500   1.6729   0.01005   0.00567  -0.1496  0.4097  0.8033
   7.510   1.6728   0.01008   0.00570  -0.1494  0.4088  0.8034
   7.520   1.6749   0.01006   0.00568  -0.1496  0.4099  0.8035
   7.530   1.6753   0.01007   0.00570  -0.1495  0.4095  0.8037
   7.540   1.6764   0.01008   0.00570  -0.1495  0.4096  0.8039
   7.550   1.6755   0.01013   0.00574  -0.1491  0.4081  0.8040
   7.560   1.6770   0.01012   0.00574  -0.1492  0.4085  0.8042
   7.570   1.6777   0.01013   0.00574  -0.1492  0.4084  0.8043
   7.580   1.6766   0.01018   0.00579  -0.1488  0.4070  0.8044
   7.590   1.6782   0.01017   0.00578  -0.1489  0.4074  0.8046
   7.600   1.6772   0.01022   0.00582  -0.1485  0.4062  0.8048
   7.610   1.6773   0.01025   0.00585  -0.1483  0.4058  0.8049
   7.620   1.6803   0.01020   0.00581  -0.1487  0.4070  0.8050
   7.630   1.6826   0.01017   0.00579  -0.1489  0.4081  0.8052
   7.640   1.6821   0.01022   0.00583  -0.1486  0.4070  0.8054
   7.680   1.6832   0.01030   0.00590  -0.1481  0.4055  0.8060
   7.690   1.6833   0.01032   0.00592  -0.1480  0.4051  0.8061
   7.700   1.6850   0.01031   0.00591  -0.1481  0.4055  0.8062
   7.710   1.6846   0.01035   0.00595  -0.1478  0.4043  0.8063
   7.720   1.6854   0.01036   0.00596  -0.1478  0.4039  0.8065
   7.730   1.6863   0.01036   0.00596  -0.1478  0.4039  0.8068
   7.740   1.6872   0.01037   0.00597  -0.1477  0.4039  0.8069
   7.750   1.6879   0.01038   0.00598  -0.1477  0.4036  0.8071
   7.760   1.6890   0.01038   0.00598  -0.1477  0.4040  0.8073
   7.770   1.6897   0.01039   0.00600  -0.1476  0.4035  0.8074
   7.780   1.6908   0.01039   0.00600  -0.1477  0.4044  0.8075
   7.790   1.6912   0.01041   0.00601  -0.1476  0.4030  0.8077
   7.800   1.6917   0.01042   0.00603  -0.1475  0.4023  0.8079
   7.810   1.6926   0.01043   0.00604  -0.1474  0.4024  0.8082
   7.820   1.6942   0.01041   0.00603  -0.1475  0.4039  0.8083
   7.830   1.6945   0.01044   0.00605  -0.1474  0.4025  0.8085
   7.840   1.6949   0.01045   0.00607  -0.1473  0.4019  0.8087
   7.850   1.6957   0.01046   0.00608  -0.1473  0.4017  0.8089
   7.860   1.6959   0.01048   0.00610  -0.1471  0.4008  0.8091
   7.870   1.6965   0.01050   0.00611  -0.1470  0.4004  0.8093
   7.880   1.6979   0.01049   0.00611  -0.1471  0.4011  0.8094
   7.890   1.6983   0.01051   0.00612  -0.1470  0.4005  0.8097
   7.900   1.6992   0.01051   0.00613  -0.1470  0.4005  0.8098
   7.910   1.6999   0.01053   0.00614  -0.1469  0.4003  0.8100
   7.920   1.7013   0.01052   0.00614  -0.1470  0.4009  0.8103
   7.930   1.7013   0.01055   0.00616  -0.1468  0.3999  0.8105
   7.940   1.7022   0.01055   0.00617  -0.1468  0.3999  0.8107
   7.950   1.7025   0.01057   0.00619  -0.1467  0.3994  0.8109
   7.960   1.7042   0.01056   0.00618  -0.1468  0.4002  0.8111
   7.970   1.7039   0.01059   0.00621  -0.1466  0.3991  0.8112
   7.980   1.7047   0.01060   0.00622  -0.1465  0.3990  0.8115
   7.990   1.7044   0.01064   0.00625  -0.1463  0.3981  0.8117
   8.000   1.7063   0.01062   0.00624  -0.1465  0.3989  0.8120
   8.010   1.7068   0.01063   0.00625  -0.1464  0.3986  0.8121
   8.020   1.7079   0.01063   0.00626  -0.1464  0.3988  0.8124
   8.030   1.7073   0.01068   0.00629  -0.1461  0.3977  0.8126
   8.040   1.7079   0.01069   0.00631  -0.1460  0.3976  0.8127
   8.050   1.7080   0.01072   0.00633  -0.1459  0.3971  0.8129
   8.060   1.7095   0.01071   0.00632  -0.1459  0.3975  0.8132
   8.070   1.7094   0.01074   0.00635  -0.1457  0.3969  0.8133
   8.080   1.7107   0.01073   0.00635  -0.1458  0.3972  0.8136
   8.090   1.7101   0.01078   0.00639  -0.1455  0.3963  0.8137
   8.100   1.7108   0.01079   0.00640  -0.1455  0.3962  0.8139
   8.110   1.7115   0.01080   0.00641  -0.1454  0.3962  0.8142
   8.120   1.7124   0.01080   0.00642  -0.1454  0.3962  0.8144
   8.130   1.7121   0.01084   0.00645  -0.1452  0.3956  0.8146
   8.140   1.7121   0.01087   0.00647  -0.1450  0.3952  0.8148
   8.150   1.7131   0.01087   0.00648  -0.1450  0.3952  0.8150
   8.160   1.7136   0.01089   0.00649  -0.1449  0.3951  0.8152
   8.170   1.7137   0.01091   0.00651  -0.1447  0.3947  0.8153
   8.180   1.7141   0.01093   0.00653  -0.1446  0.3945  0.8154
   8.190   1.7150   0.01094   0.00654  -0.1446  0.3945  0.8156
   8.200   1.7155   0.01095   0.00655  -0.1445  0.3938  0.8158
   8.210   1.7165   0.01096   0.00656  -0.1445  0.3941  0.8160
   8.220   1.7170   0.01097   0.00657  -0.1444  0.3934  0.8162
   8.260   1.7198   0.01101   0.00662  -0.1442  0.3927  0.8169
   8.270   1.7211   0.01101   0.00662  -0.1443  0.3934  0.8171
   8.280   1.7215   0.01103   0.00664  -0.1442  0.3926  0.8173
   8.290   1.7221   0.01104   0.00665  -0.1441  0.3923  0.8175
   8.300   1.7225   0.01106   0.00667  -0.1440  0.3918  0.8176
   8.310   1.7237   0.01105   0.00667  -0.1440  0.3923  0.8178
   8.320   1.7242   0.01107   0.00668  -0.1439  0.3917  0.8179
   8.330   1.7251   0.01107   0.00669  -0.1439  0.3918  0.8182
   8.340   1.7256   0.01109   0.00670  -0.1438  0.3915  0.8183
   8.350   1.7255   0.01112   0.00673  -0.1437  0.3905  0.8184
   8.360   1.7264   0.01113   0.00674  -0.1436  0.3905  0.8186
   8.370   1.7265   0.01115   0.00677  -0.1435  0.3898  0.8188
   8.380   1.7277   0.01115   0.00677  -0.1435  0.3902  0.8190
   8.390   1.7283   0.01116   0.00678  -0.1434  0.3900  0.8191
   8.400   1.7291   0.01117   0.00679  -0.1434  0.3899  0.8191
   8.410   1.7299   0.01118   0.00680  -0.1434  0.3899  0.8195
   8.420   1.7299   0.01121   0.00683  -0.1432  0.3892  0.8195
   8.430   1.7313   0.01120   0.00682  -0.1433  0.3897  0.8198
   8.440   1.7323   0.01120   0.00683  -0.1433  0.3898  0.8199
   8.450   1.7320   0.01124   0.00686  -0.1430  0.3889  0.8200
   8.460   1.7326   0.01125   0.00687  -0.1430  0.3887  0.8202
   8.470   1.7330   0.01127   0.00689  -0.1429  0.3884  0.8203
   8.480   1.7332   0.01129   0.00691  -0.1427  0.3880  0.8204
   8.490   1.7331   0.01133   0.00694  -0.1426  0.3874  0.8206
   8.500   1.7332   0.01135   0.00697  -0.1424  0.3870  0.8207
   8.510   1.7341   0.01136   0.00698  -0.1424  0.3871  0.8209
   8.520   1.7354   0.01135   0.00697  -0.1424  0.3874  0.8210
   8.530   1.7359   0.01137   0.00699  -0.1423  0.3872  0.8212
   8.540   1.7349   0.01142   0.00704  -0.1420  0.3863  0.8214
   8.550   1.7356   0.01143   0.00705  -0.1419  0.3862  0.8215
   8.560   1.7362   0.01145   0.00706  -0.1419  0.3861  0.8216
   8.570   1.7373   0.01145   0.00707  -0.1419  0.3863  0.8217
   8.580   1.7375   0.01147   0.00709  -0.1418  0.3860  0.8219
   8.590   1.7372   0.01151   0.00712  -0.1415  0.3855  0.8220
   8.600   1.7383   0.01151   0.00713  -0.1416  0.3856  0.8222
   8.610   1.7387   0.01152   0.00714  -0.1415  0.3855  0.8223
   8.620   1.7379   0.01158   0.00719  -0.1412  0.3847  0.8225
   8.630   1.7383   0.01159   0.00721  -0.1411  0.3846  0.8226
   8.640   1.7392   0.01160   0.00721  -0.1411  0.3846  0.8228
   8.650   1.7394   0.01162   0.00724  -0.1409  0.3844  0.8229
   8.660   1.7394   0.01165   0.00727  -0.1408  0.3840  0.8231
   8.670   1.7400   0.01167   0.00728  -0.1407  0.3837  0.8232
   8.680   1.7408   0.01167   0.00729  -0.1407  0.3838  0.8233
   8.690   1.7414   0.01169   0.00730  -0.1406  0.3835  0.8234
   8.700   1.7421   0.01170   0.00732  -0.1405  0.3833  0.8235
   8.710   1.7426   0.01172   0.00733  -0.1404  0.3829  0.8237
   8.720   1.7430   0.01174   0.00735  -0.1403  0.3825  0.8238
   8.730   1.7436   0.01175   0.00737  -0.1403  0.3824  0.8240
   8.740   1.7446   0.01175   0.00737  -0.1403  0.3826  0.8241
   8.750   1.7452   0.01177   0.00739  -0.1402  0.3823  0.8242
   8.760   1.7460   0.01178   0.00740  -0.1402  0.3824  0.8243
   8.770   1.7455   0.01182   0.00743  -0.1400  0.3812  0.8244
   8.780   1.7467   0.01182   0.00744  -0.1400  0.3815  0.8246
   8.790   1.7476   0.01182   0.00744  -0.1400  0.3817  0.8247
   8.800   1.7475   0.01186   0.00747  -0.1398  0.3809  0.8248
   8.810   1.7482   0.01187   0.00749  -0.1397  0.3808  0.8250
   8.820   1.7486   0.01189   0.00751  -0.1396  0.3805  0.8251
   8.830   1.7499   0.01188   0.00750  -0.1397  0.3811  0.8253
   8.840   1.7495   0.01192   0.00754  -0.1395  0.3800  0.8254
   8.850   1.7507   0.01192   0.00754  -0.1395  0.3804  0.8256
   8.860   1.7513   0.01193   0.00756  -0.1394  0.3803  0.8256
   8.870   1.7514   0.01196   0.00758  -0.1393  0.3799  0.8258
   8.880   1.7504   0.01202   0.00763  -0.1390  0.3786  0.8259
   8.890   1.7525   0.01199   0.00761  -0.1391  0.3795  0.8260
   8.900   1.7515   0.01205   0.00767  -0.1388  0.3784  0.8262
   8.910   1.7527   0.01205   0.00767  -0.1389  0.3787  0.8264
   8.920   1.7530   0.01207   0.00769  -0.1387  0.3785  0.8264
   8.930   1.7532   0.01209   0.00771  -0.1386  0.3781  0.8266
   8.940   1.7531   0.01213   0.00775  -0.1384  0.3777  0.8268
   8.950   1.7532   0.01216   0.00777  -0.1383  0.3773  0.8269
