  
       XFOIL         Version 6.94
  
 Calculated polar for: 1080                                            
  
 1 1 Reynolds number fixed          Mach number fixed         
  
 xtrf =   1.000 (top)        1.000 (bottom)  
 Mach =   0.000     Re =     2.000 e 6     Ncrit =   9.000
  
  alpha     CL        CD       CDp       CM    Top_Xtr Bot_Xtr
 ------- -------- --------- --------- -------- ------- -------
   6.000   1.5766   0.00828   0.00423  -0.1990  0.5988  0.6020
   6.010   1.5775   0.00828   0.00424  -0.1990  0.5987  0.6021
   6.020   1.5781   0.00828   0.00424  -0.1989  0.5985  0.6022
   6.030   1.5792   0.00829   0.00424  -0.1989  0.5985  0.6023
   6.040   1.5799   0.00829   0.00425  -0.1989  0.5983  0.6024
   6.050   1.5809   0.00829   0.00425  -0.1988  0.5983  0.6025
   6.060   1.5817   0.00829   0.00425  -0.1988  0.5981  0.6026
   6.070   1.5825   0.00830   0.00426  -0.1988  0.5981  0.6027
   6.080   1.5834   0.00830   0.00426  -0.1988  0.5980  0.6028
   6.090   1.5843   0.00830   0.00426  -0.1987  0.5979  0.6029
   6.100   1.5851   0.00830   0.00427  -0.1987  0.5977  0.6030
   6.110   1.5859   0.00830   0.00427  -0.1987  0.5977  0.6031
   6.120   1.5868   0.00831   0.00427  -0.1986  0.5976  0.6032
   6.130   1.5875   0.00831   0.00428  -0.1986  0.5974  0.6032
   6.140   1.5884   0.00831   0.00428  -0.1986  0.5974  0.6033
   6.150   1.5892   0.00831   0.00428  -0.1985  0.5972  0.6035
   6.160   1.5902   0.00832   0.00429  -0.1985  0.5972  0.6036
   6.170   1.5910   0.00832   0.00429  -0.1985  0.5971  0.6036
   6.180   1.5918   0.00832   0.00429  -0.1984  0.5970  0.6037
   6.190   1.5926   0.00832   0.00430  -0.1984  0.5969  0.6039
   6.200   1.5933   0.00833   0.00430  -0.1983  0.5967  0.6040
   6.210   1.5942   0.00833   0.00431  -0.1983  0.5967  0.6041
   6.220   1.5950   0.00833   0.00431  -0.1983  0.5966  0.6042
   6.230   1.5959   0.00834   0.00431  -0.1983  0.5965  0.6043
   6.240   1.5967   0.00834   0.00432  -0.1982  0.5964  0.6044
   6.250   1.5975   0.00834   0.00432  -0.1982  0.5963  0.6044
   6.260   1.5983   0.00835   0.00432  -0.1981  0.5962  0.6045
   6.270   1.5991   0.00835   0.00433  -0.1981  0.5961  0.6047
   6.280   1.6000   0.00835   0.00433  -0.1981  0.5961  0.6047
   6.290   1.6008   0.00836   0.00434  -0.1981  0.5960  0.6048
   6.300   1.6017   0.00836   0.00434  -0.1980  0.5959  0.6050
   6.310   1.6024   0.00836   0.00434  -0.1980  0.5958  0.6050
   6.320   1.6033   0.00837   0.00435  -0.1980  0.5957  0.6052
   6.330   1.6040   0.00837   0.00435  -0.1979  0.5956  0.6052
   6.340   1.6049   0.00837   0.00435  -0.1979  0.5955  0.6054
   6.350   1.6058   0.00838   0.00436  -0.1979  0.5955  0.6054
   6.360   1.6065   0.00838   0.00436  -0.1978  0.5953  0.6056
   6.370   1.6073   0.00839   0.00437  -0.1978  0.5952  0.6056
   6.380   1.6081   0.00839   0.00437  -0.1977  0.5951  0.6058
   6.390   1.6089   0.00839   0.00437  -0.1977  0.5950  0.6059
   6.400   1.6097   0.00840   0.00438  -0.1977  0.5950  0.6059
   6.410   1.6105   0.00840   0.00438  -0.1976  0.5949  0.6060
   6.420   1.6114   0.00841   0.00439  -0.1976  0.5948  0.6061
   6.430   1.6121   0.00841   0.00439  -0.1976  0.5947  0.6063
   6.440   1.6130   0.00842   0.00440  -0.1975  0.5946  0.6063
   6.450   1.6138   0.00842   0.00440  -0.1975  0.5945  0.6064
   6.460   1.6146   0.00843   0.00441  -0.1975  0.5944  0.6065
   6.470   1.6154   0.00843   0.00441  -0.1974  0.5943  0.6066
   6.480   1.6162   0.00844   0.00441  -0.1974  0.5942  0.6066
   6.490   1.6170   0.00844   0.00442  -0.1973  0.5941  0.6068
   6.500   1.6178   0.00845   0.00442  -0.1973  0.5941  0.6069
   6.510   1.6187   0.00845   0.00443  -0.1973  0.5940  0.6070
   6.520   1.6194   0.00846   0.00443  -0.1972  0.5939  0.6071
