  
       XFOIL         Version 6.94
  
 Calculated polar for: 1080                                            
  
 1 1 Reynolds number fixed          Mach number fixed         
  
 xtrf =   1.000 (top)        1.000 (bottom)  
 Mach =   0.000     Re =     2.000 e 6     Ncrit =   9.000
  
  alpha     CL        CD       CDp       CM    Top_Xtr Bot_Xtr
 ------- -------- --------- --------- -------- ------- -------
   6.000   1.3988   0.00751   0.00345  -0.1597  0.5892  0.6167
   6.010   1.3996   0.00752   0.00346  -0.1597  0.5891  0.6168
   6.020   1.4005   0.00752   0.00346  -0.1597  0.5891  0.6170
   6.030   1.4013   0.00753   0.00346  -0.1596  0.5889  0.6171
   6.040   1.4022   0.00753   0.00347  -0.1596  0.5889  0.6172
   6.050   1.4029   0.00754   0.00347  -0.1595  0.5887  0.6174
   6.060   1.4039   0.00754   0.00348  -0.1595  0.5886  0.6175
   6.070   1.4048   0.00755   0.00348  -0.1595  0.5885  0.6177
   6.080   1.4056   0.00755   0.00349  -0.1595  0.5884  0.6178
   6.090   1.4064   0.00756   0.00349  -0.1594  0.5883  0.6179
   6.100   1.4073   0.00756   0.00350  -0.1594  0.5882  0.6182
   6.110   1.4084   0.00756   0.00350  -0.1594  0.5882  0.6182
   6.120   1.4093   0.00756   0.00351  -0.1594  0.5881  0.6184
   6.130   1.4102   0.00757   0.00351  -0.1594  0.5880  0.6185
   6.140   1.4112   0.00757   0.00351  -0.1594  0.5880  0.6187
   6.150   1.4122   0.00757   0.00352  -0.1594  0.5879  0.6188
   6.160   1.4131   0.00757   0.00352  -0.1593  0.5878  0.6190
   6.170   1.4140   0.00758   0.00353  -0.1593  0.5877  0.6192
   6.180   1.4150   0.00758   0.00353  -0.1593  0.5877  0.6193
   6.190   1.4159   0.00758   0.00354  -0.1593  0.5876  0.6194
   6.200   1.4168   0.00758   0.00354  -0.1593  0.5875  0.6196
   6.210   1.4178   0.00758   0.00354  -0.1593  0.5874  0.6198
   6.220   1.4187   0.00759   0.00355  -0.1593  0.5873  0.6198
   6.230   1.4197   0.00759   0.00355  -0.1592  0.5873  0.6200
   6.240   1.4207   0.00759   0.00356  -0.1592  0.5872  0.6202
   6.250   1.4216   0.00759   0.00356  -0.1592  0.5871  0.6204
   6.260   1.4226   0.00760   0.00356  -0.1592  0.5871  0.6204
   6.270   1.4234   0.00760   0.00357  -0.1592  0.5869  0.6206
   6.280   1.4244   0.00760   0.00357  -0.1592  0.5868  0.6208
   6.290   1.4254   0.00760   0.00358  -0.1592  0.5868  0.6209
   6.300   1.4263   0.00761   0.00358  -0.1591  0.5866  0.6211
