  
       XFOIL         Version 6.94
  
 Calculated polar for: 1080                                            
  
 1 1 Reynolds number fixed          Mach number fixed         
  
 xtrf =   1.000 (top)        1.000 (bottom)  
 Mach =   0.000     Re =     2.000 e 6     Ncrit =   9.000
  
  alpha     CL        CD       CDp       CM    Top_Xtr Bot_Xtr
 ------- -------- --------- --------- -------- ------- -------
   6.000   1.5030   0.00858   0.00441  -0.1586  0.5305  0.7875
   6.010   1.5042   0.00859   0.00442  -0.1587  0.5303  0.7875
   6.020   1.5050   0.00859   0.00442  -0.1586  0.5302  0.7875
   6.030   1.5038   0.00856   0.00440  -0.1581  0.5299  0.7876
   6.040   1.5071   0.00860   0.00443  -0.1586  0.5302  0.7875
   6.050   1.5065   0.00858   0.00441  -0.1583  0.5300  0.7876
   6.060   1.5081   0.00859   0.00443  -0.1584  0.5301  0.7876
   6.070   1.5096   0.00860   0.00444  -0.1585  0.5301  0.7876
   6.080   1.5096   0.00859   0.00443  -0.1583  0.5300  0.7876
   6.090   1.5109   0.00859   0.00443  -0.1584  0.5300  0.7876
   6.100   1.5119   0.00860   0.00444  -0.1584  0.5300  0.7877
   6.110   1.5138   0.00861   0.00445  -0.1586  0.5301  0.7877
   6.120   1.5143   0.00861   0.00445  -0.1585  0.5300  0.7877
   6.130   1.5155   0.00861   0.00446  -0.1585  0.5300  0.7877
   6.140   1.5150   0.00859   0.00444  -0.1582  0.5298  0.7877
   6.150   1.5153   0.00858   0.00444  -0.1580  0.5297  0.7878
   6.160   1.5163   0.00859   0.00444  -0.1580  0.5296  0.7878
   6.170   1.5183   0.00861   0.00446  -0.1583  0.5298  0.7878
   6.180   1.5195   0.00861   0.00447  -0.1583  0.5298  0.7878
   6.190   1.5193   0.00860   0.00446  -0.1580  0.5296  0.7878
   6.200   1.5208   0.00861   0.00447  -0.1582  0.5297  0.7879
   6.210   1.5214   0.00860   0.00446  -0.1581  0.5296  0.7879
   6.220   1.5226   0.00861   0.00447  -0.1581  0.5296  0.7879
   6.230   1.5237   0.00861   0.00448  -0.1582  0.5296  0.7879
   6.240   1.5236   0.00860   0.00447  -0.1579  0.5294  0.7879
   6.250   1.5252   0.00861   0.00448  -0.1581  0.5295  0.7879
   6.260   1.5249   0.00859   0.00447  -0.1577  0.5292  0.7880
   6.270   1.5270   0.00861   0.00448  -0.1580  0.5294  0.7880
   6.280   1.5271   0.00860   0.00448  -0.1578  0.5292  0.7880
   6.290   1.5279   0.00860   0.00448  -0.1578  0.5291  0.7880
   6.300   1.5272   0.00858   0.00446  -0.1574  0.5286  0.7881
   6.310   1.5267   0.00855   0.00444  -0.1571  0.5281  0.7881
   6.320   1.5312   0.00862   0.00449  -0.1578  0.5291  0.7881
   6.330   1.5325   0.00863   0.00450  -0.1579  0.5292  0.7881
   6.340   1.5326   0.00861   0.00449  -0.1577  0.5290  0.7881
   6.350   1.5331   0.00861   0.00449  -0.1576  0.5288  0.7882
   6.360   1.5350   0.00863   0.00451  -0.1578  0.5290  0.7881
   6.370   1.5327   0.00857   0.00446  -0.1571  0.5279  0.7882
   6.380   1.5232   0.00841   0.00427  -0.1547  0.5212  0.7884
   6.390   1.5321   0.00852   0.00442  -0.1565  0.5266  0.7883
   6.400   1.5287   0.00843   0.00431  -0.1555  0.5235  0.7884
   6.410   1.5379   0.00861   0.00450  -0.1573  0.5283  0.7883
   6.420   1.5386   0.00861   0.00450  -0.1573  0.5282  0.7883
   6.430   1.5391   0.00860   0.00450  -0.1572  0.5280  0.7883
   6.440   1.5363   0.00852   0.00442  -0.1563  0.5260  0.7884
   6.450   1.5295   0.00845   0.00430  -0.1546  0.5207  0.7886
   6.460   1.5357   0.00846   0.00436  -0.1557  0.5241  0.7885
   6.470   1.5310   0.00844   0.00429  -0.1545  0.5200  0.7886
   6.480   1.5401   0.00853   0.00443  -0.1563  0.5258  0.7885
   6.490   1.5344   0.00845   0.00432  -0.1548  0.5213  0.7886
   6.500   1.5355   0.00846   0.00432  -0.1548  0.5213  0.7886
   6.510   1.5352   0.00847   0.00432  -0.1546  0.5203  0.7887
   6.520   1.5360   0.00840   0.00427  -0.1545  0.5171  0.7887
   6.530   1.5368   0.00839   0.00426  -0.1545  0.5163  0.7887
   6.540   1.5441   0.00849   0.00440  -0.1558  0.5242  0.7886
   6.550   1.5446   0.00849   0.00439  -0.1557  0.5238  0.7887
   6.560   1.5399   0.00840   0.00428  -0.1545  0.5167  0.7888
   6.570   1.5410   0.00841   0.00429  -0.1545  0.5171  0.7888
   6.580   1.5421   0.00844   0.00432  -0.1546  0.5186  0.7888
   6.590   1.5439   0.00850   0.00436  -0.1547  0.5207  0.7888
   6.600   1.5442   0.00847   0.00435  -0.1546  0.5195  0.7888
   6.610   1.5450   0.00843   0.00431  -0.1545  0.5171  0.7888
   6.620   1.5460   0.00842   0.00430  -0.1545  0.5163  0.7889
   6.630   1.5503   0.00850   0.00439  -0.1553  0.5222  0.7888
   6.640   1.5460   0.00842   0.00428  -0.1541  0.5132  0.7889
   6.650   1.5434   0.00845   0.00428  -0.1534  0.5106  0.7890
   6.660   1.5498   0.00843   0.00431  -0.1545  0.5157  0.7889
   6.670   1.5532   0.00852   0.00440  -0.1551  0.5215  0.7889
   6.680   1.5479   0.00845   0.00429  -0.1537  0.5117  0.7890
   6.690   1.5524   0.00844   0.00432  -0.1544  0.5150  0.7890
   6.700   1.5532   0.00844   0.00432  -0.1544  0.5146  0.7890
   6.710   1.5511   0.00846   0.00431  -0.1537  0.5118  0.7891
   6.720   1.5484   0.00848   0.00430  -0.1530  0.5034  0.7892
   6.730   1.5548   0.00845   0.00432  -0.1541  0.5131  0.7891
   6.740   1.5527   0.00847   0.00432  -0.1535  0.5094  0.7892
   6.750   1.5540   0.00848   0.00433  -0.1535  0.5112  0.7892
   6.760   1.5531   0.00848   0.00431  -0.1532  0.5042  0.7892
   6.770   1.5571   0.00848   0.00433  -0.1538  0.5119  0.7892
   6.780   1.5562   0.00848   0.00432  -0.1534  0.5061  0.7892
   6.790   1.5563   0.00849   0.00432  -0.1532  0.5045  0.7893
   6.800   1.5532   0.00855   0.00435  -0.1524  0.5004  0.7894
   6.810   1.5541   0.00856   0.00436  -0.1524  0.4996  0.7894
   6.820   1.5564   0.00854   0.00435  -0.1526  0.5019  0.7894
   6.830   1.5606   0.00850   0.00434  -0.1533  0.5051  0.7893
   6.840   1.5615   0.00851   0.00435  -0.1533  0.5049  0.7894
   6.850   1.5624   0.00851   0.00435  -0.1533  0.5048  0.7894
   6.860   1.5586   0.00858   0.00438  -0.1523  0.4986  0.7895
   6.870   1.5627   0.00854   0.00437  -0.1529  0.5030  0.7894
   6.880   1.5609   0.00858   0.00439  -0.1524  0.4994  0.7895
   6.890   1.5599   0.00862   0.00441  -0.1520  0.4952  0.7895
   6.900   1.5648   0.00856   0.00438  -0.1528  0.5023  0.7895
   6.910   1.5626   0.00861   0.00441  -0.1521  0.4965  0.7896
   6.920   1.5540   0.00880   0.00453  -0.1503  0.4840  0.7897
   6.930   1.5653   0.00861   0.00442  -0.1523  0.4980  0.7896
   6.940   1.5699   0.00856   0.00440  -0.1530  0.5034  0.7896
   6.950   1.5600   0.00875   0.00450  -0.1509  0.4879  0.7897
   6.970   1.5676   0.00865   0.00445  -0.1520  0.4950  0.7897
   6.980   1.5693   0.00864   0.00445  -0.1521  0.4962  0.7897
   6.990   1.5650   0.00874   0.00451  -0.1511  0.4901  0.7898
   7.000   1.5631   0.00881   0.00455  -0.1505  0.4854  0.7899
   7.020   1.5567   0.00899   0.00468  -0.1490  0.4763  0.7900
   7.030   1.5523   0.00912   0.00477  -0.1479  0.4720  0.7901
   7.050   1.5623   0.00895   0.00466  -0.1495  0.4796  0.7900
   7.060   1.5713   0.00878   0.00455  -0.1510  0.4891  0.7899
   7.070   1.5484   0.00931   0.00493  -0.1465  0.4646  0.7903
   7.080   1.5589   0.00909   0.00477  -0.1483  0.4733  0.7902
   7.090   1.5726   0.00882   0.00458  -0.1507  0.4865  0.7900
   7.100   1.5638   0.00904   0.00473  -0.1488  0.4759  0.7902
   7.110   1.5660   0.00901   0.00472  -0.1491  0.4771  0.7902
   7.120   1.5503   0.00939   0.00501  -0.1459  0.4628  0.7904
   7.130   1.5573   0.00926   0.00490  -0.1471  0.4675  0.7903
   7.140   1.5566   0.00930   0.00494  -0.1467  0.4659  0.7904
   7.150   1.5403   0.00971   0.00527  -0.1435  0.4530  0.7906
   7.160   1.5435   0.00966   0.00523  -0.1439  0.4542  0.7906
   7.170   1.5415   0.00974   0.00529  -0.1434  0.4526  0.7906
   7.180   1.5536   0.00948   0.00508  -0.1454  0.4609  0.7905
   7.190   1.5354   0.00994   0.00546  -0.1419  0.4467  0.7908
   7.200   1.5571   0.00945   0.00507  -0.1457  0.4624  0.7905
   7.210   1.5412   0.00985   0.00539  -0.1426  0.4497  0.7908
   7.220   1.5439   0.00981   0.00536  -0.1429  0.4511  0.7908
   7.230   1.5463   0.00978   0.00534  -0.1432  0.4523  0.7908
   7.240   1.5535   0.00964   0.00523  -0.1443  0.4561  0.7907
   7.250   1.5472   0.00981   0.00537  -0.1430  0.4517  0.7908
   7.260   1.5538   0.00968   0.00527  -0.1440  0.4551  0.7908
   7.270   1.5565   0.00965   0.00524  -0.1444  0.4564  0.7908
   7.280   1.5312   0.01028   0.00577  -0.1396  0.4392  0.7911
   7.290   1.5423   0.01004   0.00557  -0.1414  0.4455  0.7910
   7.300   1.5161   0.01072   0.00615  -0.1366  0.4292  0.7913
   7.310   1.5409   0.01013   0.00565  -0.1408  0.4437  0.7911
   7.320   1.5364   0.01027   0.00577  -0.1398  0.4404  0.7911
   7.330   1.5159   0.01081   0.00624  -0.1360  0.4276  0.7914
   7.340   1.5209   0.01071   0.00615  -0.1368  0.4302  0.7914
   7.350   1.5165   0.01085   0.00628  -0.1358  0.4270  0.7914
   7.360   1.5415   0.01025   0.00576  -0.1401  0.4415  0.7912
   7.370   1.5390   0.01034   0.00584  -0.1395  0.4393  0.7913
   7.380   1.5303   0.01059   0.00606  -0.1377  0.4337  0.7914
   7.390   1.5501   0.01012   0.00566  -0.1411  0.4449  0.7912
   7.400   1.5149   0.01104   0.00646  -0.1347  0.4241  0.7916
   7.410   1.5130   0.01112   0.00653  -0.1342  0.4230  0.7916
   7.420   1.5182   0.01102   0.00644  -0.1350  0.4249  0.7916
   7.430   1.5198   0.01100   0.00643  -0.1351  0.4252  0.7916
   7.440   1.5370   0.01059   0.00607  -0.1379  0.4345  0.7915
   7.450   1.5191   0.01108   0.00650  -0.1346  0.4242  0.7917
   7.460   1.5253   0.01095   0.00639  -0.1355  0.4269  0.7916
   7.470   1.5114   0.01135   0.00675  -0.1330  0.4194  0.7918
   7.480   1.5308   0.01086   0.00631  -0.1361  0.4292  0.7916
   7.490   1.5064   0.01155   0.00693  -0.1318  0.4160  0.7919
   7.500   1.5078   0.01154   0.00693  -0.1319  0.4163  0.7919
   7.510   1.5276   0.01104   0.00647  -0.1351  0.4259  0.7917
   7.520   1.5181   0.01132   0.00673  -0.1333  0.4211  0.7919
   7.530   1.5178   0.01136   0.00677  -0.1331  0.4204  0.7919
   7.540   1.5091   0.01163   0.00702  -0.1315  0.4155  0.7920
   7.570   1.4950   0.01213   0.00749  -0.1287  0.4080  0.7924
   7.590   1.5001   0.01205   0.00741  -0.1292  0.4098  0.7924
   7.600   1.4994   0.01210   0.00746  -0.1290  0.4091  0.7924
   7.610   1.4846   0.01259   0.00792  -0.1265  0.4028  0.7928
   7.620   1.4704   0.01309   0.00840  -0.1241  0.3960  0.7931
   7.630   1.4878   0.01256   0.00790  -0.1267  0.4033  0.7928
   7.640   1.5119   0.01187   0.00726  -0.1304  0.4136  0.7924
   7.650   1.4703   0.01321   0.00852  -0.1237  0.3952  0.7933
   7.660   1.4922   0.01252   0.00788  -0.1269  0.4042  0.7929
   7.670   1.5137   0.01191   0.00730  -0.1302  0.4135  0.7925
   7.680   1.4849   0.01283   0.00817  -0.1255  0.4007  0.7931
   7.690   1.4836   0.01291   0.00825  -0.1251  0.3999  0.7932
   7.700   1.4873   0.01282   0.00817  -0.1256  0.4013  0.7932
   7.710   1.4914   0.01273   0.00808  -0.1261  0.4028  0.7931
   7.720   1.4715   0.01344   0.00876  -0.1229  0.3941  0.7935
   7.730   1.4931   0.01275   0.00810  -0.1260  0.4029  0.7932
   7.740   1.5022   0.01249   0.00786  -0.1273  0.4059  0.7931
   7.750   1.5102   0.01228   0.00766  -0.1284  0.4092  0.7930
   7.760   1.4442   0.01468   0.00997  -0.1185  0.3836  0.7942
   7.770   1.4853   0.01316   0.00850  -0.1243  0.3983  0.7935
   7.780   1.4796   0.01339   0.00873  -0.1233  0.3957  0.7937
   7.790   1.4826   0.01333   0.00867  -0.1236  0.3966  0.7936
   7.800   1.4751   0.01364   0.00897  -0.1223  0.3938  0.7938
   7.810   1.4624   0.01417   0.00948  -0.1204  0.3889  0.7941
   7.820   1.4780   0.01361   0.00895  -0.1225  0.3944  0.7939
   7.830   1.4894   0.01325   0.00860  -0.1241  0.3985  0.7937
   7.840   1.4953   0.01308   0.00845  -0.1248  0.4008  0.7937
   7.850   1.4867   0.01342   0.00877  -0.1234  0.3968  0.7938
   7.860   1.4719   0.01402   0.00935  -0.1211  0.3916  0.7941
   7.870   1.4674   0.01424   0.00957  -0.1203  0.3896  0.7942
   7.880   1.4737   0.01404   0.00937  -0.1211  0.3919  0.7942
   7.890   1.4924   0.01338   0.00874  -0.1237  0.3982  0.7939
   7.910   1.4664   0.01446   0.00980  -0.1197  0.3884  0.7944
   7.920   1.4849   0.01378   0.00914  -0.1222  0.3947  0.7942
   7.930   1.4623   0.01473   0.01006  -0.1189  0.3865  0.7946
   7.940   1.4780   0.01413   0.00948  -0.1209  0.3923  0.7944
   7.950   1.4760   0.01426   0.00960  -0.1205  0.3913  0.7945
   7.960   1.4710   0.01451   0.00985  -0.1197  0.3891  0.7946
   7.970   1.4349   0.01623   0.01154  -0.1149  0.3771  0.7952
   7.980   1.4348   0.01629   0.01160  -0.1148  0.3769  0.7952
   7.990   1.4425   0.01596   0.01128  -0.1157  0.3794  0.7951
   8.000   1.4808   0.01429   0.00965  -0.1206  0.3922  0.7946
   8.010   1.4564   0.01540   0.01073  -0.1172  0.3835  0.7950
   8.020   1.4545   0.01554   0.01088  -0.1168  0.3829  0.7951
   8.030   1.4629   0.01521   0.01055  -0.1178  0.3850  0.7950
   8.040   1.4503   0.01585   0.01118  -0.1161  0.3814  0.7952
   8.050   1.4494   0.01596   0.01129  -0.1159  0.3809  0.7953
   8.060   1.4437   0.01630   0.01163  -0.1151  0.3787  0.7954
   8.070   1.4462   0.01623   0.01156  -0.1153  0.3795  0.7954
   8.080   1.4649   0.01537   0.01073  -0.1175  0.3849  0.7952
   8.090   1.4676   0.01530   0.01065  -0.1177  0.3856  0.7952
   8.100   1.4270   0.01746   0.01279  -0.1127  0.3733  0.7958
   8.110   1.4513   0.01620   0.01154  -0.1155  0.3807  0.7955
   8.120   1.4515   0.01625   0.01160  -0.1154  0.3805  0.7955
   8.130   1.4341   0.01725   0.01259  -0.1132  0.3748  0.7958
   8.140   1.4574   0.01607   0.01142  -0.1159  0.3823  0.7955
   8.150   1.4068   0.01902   0.01434  -0.1101  0.3667  0.7962
   8.160   1.4644   0.01583   0.01119  -0.1165  0.3838  0.7955
   8.170   1.4631   0.01595   0.01132  -0.1163  0.3833  0.7955
   8.180   1.4243   0.01815   0.01349  -0.1117  0.3719  0.7961
   8.190   1.4347   0.01761   0.01295  -0.1127  0.3743  0.7960
   8.200   1.4480   0.01692   0.01227  -0.1142  0.3782  0.7959
   8.210   1.4354   0.01769   0.01305  -0.1126  0.3743  0.7961
   8.220   1.4536   0.01674   0.01210  -0.1146  0.3798  0.7959
   8.230   1.4431   0.01739   0.01275  -0.1133  0.3762  0.7960
   8.240   1.4486   0.01714   0.01250  -0.1138  0.3778  0.7960
   8.250   1.4049   0.01985   0.01519  -0.1091  0.3652  0.7966
   8.260   1.4458   0.01742   0.01279  -0.1133  0.3767  0.7961
   8.270   1.3885   0.02104   0.01638  -0.1072  0.3611  0.7968
   8.280   1.4291   0.01855   0.01391  -0.1113  0.3723  0.7964
   8.290   1.4200   0.01918   0.01454  -0.1103  0.3693  0.7965
   8.300   1.4033   0.02031   0.01566  -0.1085  0.3644  0.7968
   8.310   1.4463   0.01772   0.01310  -0.1129  0.3763  0.7963
   8.320   1.4267   0.01898   0.01434  -0.1107  0.3711  0.7966
   8.330   1.3835   0.02179   0.01713  -0.1062  0.3592  0.7971
   8.340   1.4463   0.01792   0.01330  -0.1126  0.3759  0.7964
   8.350   1.4462   0.01799   0.01337  -0.1125  0.3758  0.7964
   8.360   1.4237   0.01944   0.01481  -0.1101  0.3698  0.7968
   8.370   1.4234   0.01953   0.01491  -0.1099  0.3696  0.7968
   8.380   1.3720   0.02287   0.01822  -0.1046  0.3556  0.7974
   8.390   1.3856   0.02207   0.01743  -0.1059  0.3593  0.7973
   8.400   1.4113   0.02052   0.01589  -0.1084  0.3657  0.7970
   8.410   1.4288   0.01948   0.01486  -0.1102  0.3708  0.7969
   8.420   1.4403   0.01883   0.01422  -0.1113  0.3737  0.7968
   8.430   1.4093   0.02086   0.01624  -0.1080  0.3650  0.7972
   8.440   1.4130   0.02070   0.01608  -0.1083  0.3658  0.7972
   8.450   1.4168   0.02053   0.01591  -0.1086  0.3668  0.7972
   8.460   1.4252   0.02006   0.01545  -0.1094  0.3692  0.7971
   8.470   1.3941   0.02211   0.01749  -0.1061  0.3613  0.7975
   8.480   1.3730   0.02351   0.01888  -0.1038  0.3553  0.7977
   8.490   1.4187   0.02069   0.01609  -0.1084  0.3670  0.7973
   8.500   1.4163   0.02091   0.01631  -0.1081  0.3663  0.7974
   8.510   1.3810   0.02322   0.01859  -0.1044  0.3573  0.7978
   8.520   1.3970   0.02228   0.01767  -0.1060  0.3618  0.7976
   8.530   1.3901   0.02279   0.01817  -0.1052  0.3598  0.7977
   8.540   1.4148   0.02130   0.01670  -0.1076  0.3656  0.7975
   8.550   1.3886   0.02302   0.01841  -0.1049  0.3592  0.7978
   8.560   1.4128   0.02157   0.01697  -0.1073  0.3650  0.7976
   8.570   1.3648   0.02465   0.02003  -0.1022  0.3531  0.7982
   8.580   1.3691   0.02445   0.01984  -0.1026  0.3540  0.7981
   8.590   1.3882   0.02333   0.01873  -0.1045  0.3589  0.7980
   8.600   1.4026   0.02249   0.01790  -0.1059  0.3625  0.7979
   8.610   1.3718   0.02449   0.01988  -0.1026  0.3545  0.7982
   8.620   1.3701   0.02467   0.02006  -0.1024  0.3540  0.7983
   8.630   1.4025   0.02271   0.01812  -0.1056  0.3624  0.7980
   8.640   1.3964   0.02317   0.01858  -0.1049  0.3610  0.7981
   8.650   1.3637   0.02528   0.02067  -0.1015  0.3527  0.7985
   8.660   1.3482   0.02630   0.02169  -0.0998  0.3487  0.7986
   8.670   1.3511   0.02619   0.02158  -0.1000  0.3495  0.7987
   8.680   1.3842   0.02421   0.01962  -0.1033  0.3574  0.7984
   8.690   1.4113   0.02258   0.01801  -0.1060  0.3639  0.7981
   8.700   1.3721   0.02510   0.02051  -0.1019  0.3543  0.7985
   8.710   1.3684   0.02540   0.02081  -0.1014  0.3534  0.7986
   8.720   1.3568   0.02618   0.02158  -0.1002  0.3508  0.7988
   8.730   1.3798   0.02482   0.02024  -0.1024  0.3559  0.7986
   8.740   1.4048   0.02334   0.01878  -0.1049  0.3625  0.7984
   8.750   1.3814   0.02487   0.02029  -0.1024  0.3562  0.7986
