  
       XFOIL         Version 6.94
  
 Calculated polar for: 1080                                            
  
 1 1 Reynolds number fixed          Mach number fixed         
  
 xtrf =   1.000 (top)        1.000 (bottom)  
 Mach =   0.000     Re =     2.000 e 6     Ncrit =   9.000
  
  alpha     CL        CD       CDp       CM    Top_Xtr Bot_Xtr
 ------- -------- --------- --------- -------- ------- -------
   6.000   1.2987   0.00866   0.00515  -0.1493  0.6503  0.8296
   6.010   1.2998   0.00866   0.00515  -0.1493  0.6503  0.8296
   6.020   1.3009   0.00866   0.00514  -0.1494  0.6501  0.8296
   6.030   1.3019   0.00866   0.00515  -0.1494  0.6502  0.8296
   6.040   1.3030   0.00867   0.00516  -0.1494  0.6502  0.8296
   6.050   1.3042   0.00866   0.00514  -0.1494  0.6499  0.8296
   6.060   1.3053   0.00866   0.00514  -0.1495  0.6499  0.8296
   6.070   1.3063   0.00866   0.00515  -0.1495  0.6500  0.8296
   6.090   1.3086   0.00866   0.00515  -0.1495  0.6498  0.8296
   6.110   1.3109   0.00867   0.00516  -0.1496  0.6498  0.8296
   6.130   1.3136   0.00867   0.00515  -0.1498  0.6495  0.8296
   6.140   1.3148   0.00867   0.00516  -0.1498  0.6495  0.8296
   6.150   1.3165   0.00868   0.00516  -0.1500  0.6494  0.8296
   6.160   1.3176   0.00868   0.00516  -0.1500  0.6493  0.8296
   6.170   1.3179   0.00869   0.00517  -0.1499  0.6495  0.8296
   6.180   1.3201   0.00869   0.00517  -0.1501  0.6493  0.8296
   6.190   1.3221   0.00869   0.00517  -0.1504  0.6492  0.8296
   6.200   1.3224   0.00869   0.00518  -0.1502  0.6493  0.8296
   6.210   1.3262   0.00870   0.00517  -0.1508  0.6489  0.8296
   6.220   1.3266   0.00870   0.00518  -0.1507  0.6490  0.8296
   6.230   1.3272   0.00871   0.00519  -0.1506  0.6491  0.8296
   6.240   1.3282   0.00871   0.00519  -0.1506  0.6488  0.8296
   6.250   1.3304   0.00871   0.00519  -0.1509  0.6489  0.8296
   6.260   1.3316   0.00872   0.00520  -0.1510  0.6489  0.8296
   6.270   1.3301   0.00872   0.00520  -0.1504  0.6488  0.8296
   6.290   1.3318   0.00872   0.00521  -0.1504  0.6488  0.8296
   6.300   1.3282   0.00872   0.00521  -0.1494  0.6486  0.8297
   6.320   1.3331   0.00873   0.00522  -0.1500  0.6487  0.8296
   6.330   1.3334   0.00873   0.00523  -0.1499  0.6487  0.8296
   6.340   1.3329   0.00873   0.00523  -0.1496  0.6486  0.8297
   6.350   1.3331   0.00874   0.00523  -0.1494  0.6486  0.8297
   6.360   1.3302   0.00873   0.00524  -0.1486  0.6484  0.8297
   6.370   1.3327   0.00874   0.00524  -0.1489  0.6485  0.8297
   6.380   1.3339   0.00874   0.00525  -0.1490  0.6485  0.8297
   6.390   1.3334   0.00874   0.00525  -0.1486  0.6484  0.8297
   6.400   1.3344   0.00875   0.00525  -0.1487  0.6484  0.8297
   6.410   1.3328   0.00875   0.00526  -0.1481  0.6483  0.8298
   6.420   1.3350   0.00875   0.00526  -0.1484  0.6483  0.8298
   6.430   1.3350   0.00875   0.00527  -0.1482  0.6483  0.8298
   6.440   1.3347   0.00876   0.00527  -0.1479  0.6482  0.8298
   6.450   1.3356   0.00876   0.00528  -0.1479  0.6482  0.8298
   6.460   1.3360   0.00876   0.00528  -0.1477  0.6482  0.8298
   6.470   1.3345   0.00876   0.00528  -0.1472  0.6481  0.8299
   6.480   1.3336   0.00876   0.00529  -0.1468  0.6479  0.8299
   6.490   1.3375   0.00877   0.00530  -0.1475  0.6481  0.8298
   6.500   1.3360   0.00877   0.00530  -0.1469  0.6480  0.8299
   6.510   1.3369   0.00877   0.00530  -0.1469  0.6480  0.8299
   6.520   1.3366   0.00878   0.00531  -0.1466  0.6479  0.8299
   6.530   1.3356   0.00878   0.00531  -0.1462  0.6478  0.8299
   6.540   1.3369   0.00878   0.00532  -0.1463  0.6478  0.8299
   6.550   1.3396   0.00879   0.00532  -0.1467  0.6479  0.8299
   6.560   1.3387   0.00879   0.00533  -0.1463  0.6478  0.8299
   6.570   1.3390   0.00879   0.00533  -0.1461  0.6477  0.8299
   6.580   1.3384   0.00880   0.00534  -0.1458  0.6476  0.8300
   6.590   1.3387   0.00880   0.00534  -0.1457  0.6476  0.8300
   6.600   1.3399   0.00880   0.00535  -0.1457  0.6476  0.8300
   6.610   1.3401   0.00881   0.00535  -0.1456  0.6475  0.8300
   6.620   1.3409   0.00881   0.00536  -0.1455  0.6475  0.8300
   6.630   1.3403   0.00881   0.00536  -0.1452  0.6474  0.8300
   6.640   1.3400   0.00882   0.00537  -0.1449  0.6473  0.8300
   6.650   1.3419   0.00882   0.00537  -0.1451  0.6474  0.8300
   6.660   1.3424   0.00882   0.00538  -0.1450  0.6473  0.8300
   6.670   1.3433   0.00883   0.00538  -0.1450  0.6473  0.8300
   6.680   1.3430   0.00883   0.00539  -0.1447  0.6472  0.8301
   6.690   1.3418   0.00883   0.00539  -0.1443  0.6470  0.8301
   6.700   1.3425   0.00884   0.00540  -0.1442  0.6470  0.8301
   6.710   1.3447   0.00884   0.00540  -0.1445  0.6471  0.8301
   6.720   1.3438   0.00884   0.00541  -0.1441  0.6470  0.8301
   6.730   1.3443   0.00885   0.00541  -0.1440  0.6469  0.8301
   6.740   1.3449   0.00885   0.00542  -0.1439  0.6469  0.8301
   6.750   1.3434   0.00885   0.00542  -0.1434  0.6467  0.8302
   6.760   1.3461   0.00886   0.00543  -0.1438  0.6468  0.8302
   6.770   1.3458   0.00886   0.00543  -0.1435  0.6467  0.8302
   6.780   1.3466   0.00886   0.00544  -0.1435  0.6467  0.8302
   6.790   1.3463   0.00887   0.00544  -0.1432  0.6466  0.8302
   6.800   1.3474   0.00887   0.00545  -0.1433  0.6466  0.8302
   6.810   1.3470   0.00887   0.00545  -0.1429  0.6464  0.8302
   6.820   1.3491   0.00888   0.00546  -0.1432  0.6465  0.8302
   6.830   1.3484   0.00888   0.00546  -0.1429  0.6464  0.8302
   6.840   1.3488   0.00889   0.00547  -0.1427  0.6463  0.8302
   6.850   1.3489   0.00889   0.00547  -0.1426  0.6462  0.8302
   6.860   1.3499   0.00889   0.00548  -0.1426  0.6462  0.8302
   6.870   1.3496   0.00889   0.00548  -0.1423  0.6461  0.8303
   6.880   1.3506   0.00890   0.00549  -0.1423  0.6461  0.8303
   6.890   1.3509   0.00890   0.00549  -0.1422  0.6460  0.8303
   6.900   1.3517   0.00891   0.00550  -0.1421  0.6460  0.8303
   6.910   1.3521   0.00891   0.00550  -0.1420  0.6459  0.8303
   6.920   1.3508   0.00891   0.00550  -0.1416  0.6456  0.8303
   6.930   1.3525   0.00891   0.00551  -0.1417  0.6457  0.8303
   6.940   1.3536   0.00892   0.00552  -0.1417  0.6457  0.8303
   6.950   1.3539   0.00892   0.00552  -0.1416  0.6457  0.8303
   6.960   1.3549   0.00892   0.00552  -0.1416  0.6457  0.8303
   6.970   1.3542   0.00892   0.00553  -0.1413  0.6454  0.8304
   6.980   1.3558   0.00893   0.00553  -0.1414  0.6455  0.8304
   6.990   1.3564   0.00893   0.00554  -0.1413  0.6455  0.8304
   7.000   1.3571   0.00894   0.00554  -0.1413  0.6454  0.8304
   7.010   1.3574   0.00894   0.00555  -0.1411  0.6453  0.8304
   7.020   1.3580   0.00894   0.00555  -0.1411  0.6453  0.8304
   7.030   1.3584   0.00895   0.00555  -0.1409  0.6452  0.8304
   7.040   1.3590   0.00895   0.00556  -0.1409  0.6452  0.8304
   7.050   1.3594   0.00895   0.00556  -0.1407  0.6451  0.8304
   7.060   1.3599   0.00895   0.00557  -0.1407  0.6450  0.8304
   7.070   1.3607   0.00896   0.00557  -0.1406  0.6450  0.8304
   7.080   1.3611   0.00896   0.00557  -0.1405  0.6449  0.8304
   7.090   1.3632   0.00897   0.00558  -0.1407  0.6451  0.8304
   7.100   1.3632   0.00897   0.00559  -0.1406  0.6449  0.8304
   7.110   1.3633   0.00897   0.00559  -0.1404  0.6448  0.8305
   7.120   1.3638   0.00897   0.00559  -0.1403  0.6447  0.8305
   7.130   1.3644   0.00897   0.00559  -0.1402  0.6446  0.8305
   7.140   1.3648   0.00898   0.00559  -0.1401  0.6445  0.8305
   7.150   1.3663   0.00898   0.00560  -0.1402  0.6446  0.8305
   7.160   1.3675   0.00899   0.00561  -0.1403  0.6447  0.8305
   7.170   1.3674   0.00899   0.00561  -0.1400  0.6445  0.8305
   7.180   1.3680   0.00899   0.00561  -0.1400  0.6444  0.8305
   7.190   1.3683   0.00899   0.00561  -0.1398  0.6443  0.8305
   7.200   1.3694   0.00899   0.00562  -0.1398  0.6443  0.8305
   7.210   1.3697   0.00899   0.00562  -0.1397  0.6442  0.8305
   7.220   1.3706   0.00900   0.00562  -0.1397  0.6441  0.8305
   7.230   1.3716   0.00900   0.00563  -0.1397  0.6441  0.8305
   7.240   1.3721   0.00900   0.00563  -0.1396  0.6441  0.8305
   7.250   1.3726   0.00900   0.00563  -0.1395  0.6440  0.8306
   7.260   1.3728   0.00900   0.00563  -0.1394  0.6438  0.8306
   7.270   1.3739   0.00901   0.00564  -0.1394  0.6438  0.8306
   7.280   1.3744   0.00901   0.00564  -0.1393  0.6437  0.8306
   7.290   1.3755   0.00901   0.00565  -0.1393  0.6438  0.8306
   7.300   1.3762   0.00902   0.00565  -0.1393  0.6437  0.8306
   7.310   1.3764   0.00901   0.00564  -0.1391  0.6435  0.8306
   7.320   1.3776   0.00902   0.00565  -0.1392  0.6436  0.8306
   7.330   1.3776   0.00901   0.00565  -0.1390  0.6434  0.8306
   7.340   1.3789   0.00902   0.00566  -0.1390  0.6434  0.8306
   7.350   1.3785   0.00901   0.00564  -0.1387  0.6431  0.8306
   7.360   1.3804   0.00903   0.00566  -0.1390  0.6433  0.8306
   7.370   1.3811   0.00903   0.00566  -0.1389  0.6433  0.8306
   7.380   1.3817   0.00903   0.00567  -0.1388  0.6432  0.8307
   7.390   1.3826   0.00903   0.00567  -0.1388  0.6432  0.8307
   7.400   1.3830   0.00903   0.00567  -0.1387  0.6430  0.8307
   7.410   1.3839   0.00903   0.00567  -0.1387  0.6430  0.8307
   7.420   1.3850   0.00904   0.00568  -0.1387  0.6430  0.8307
   7.430   1.3851   0.00903   0.00567  -0.1385  0.6428  0.8307
   7.440   1.3861   0.00904   0.00568  -0.1386  0.6428  0.8307
   7.450   1.3872   0.00905   0.00569  -0.1386  0.6429  0.8307
   7.460   1.3875   0.00904   0.00568  -0.1385  0.6427  0.8307
   7.470   1.3884   0.00905   0.00569  -0.1384  0.6427  0.8307
   7.480   1.3892   0.00905   0.00569  -0.1384  0.6426  0.8307
   7.490   1.3905   0.00906   0.00570  -0.1385  0.6427  0.8307
   7.500   1.3906   0.00905   0.00569  -0.1383  0.6425  0.8308
   7.510   1.3910   0.00905   0.00569  -0.1382  0.6423  0.8308
   7.520   1.3922   0.00906   0.00570  -0.1382  0.6424  0.8308
   7.530   1.3928   0.00906   0.00570  -0.1382  0.6423  0.8308
   7.540   1.3937   0.00906   0.00571  -0.1381  0.6423  0.8308
   7.550   1.3945   0.00906   0.00571  -0.1381  0.6422  0.8308
   7.560   1.3955   0.00907   0.00572  -0.1381  0.6422  0.8308
   7.570   1.3958   0.00907   0.00571  -0.1380  0.6421  0.8308
   7.580   1.3968   0.00907   0.00572  -0.1380  0.6421  0.8308
   7.590   1.3976   0.00907   0.00572  -0.1380  0.6420  0.8308
   7.600   1.3981   0.00908   0.00572  -0.1379  0.6419  0.8309
   7.610   1.3977   0.00907   0.00572  -0.1376  0.6417  0.8309
   7.620   1.3993   0.00908   0.00573  -0.1377  0.6418  0.8309
   7.630   1.3992   0.00908   0.00573  -0.1375  0.6416  0.8309
   7.640   1.3998   0.00908   0.00573  -0.1374  0.6415  0.8309
   7.650   1.4014   0.00909   0.00574  -0.1376  0.6416  0.8309
   7.660   1.4020   0.00909   0.00575  -0.1375  0.6415  0.8309
   7.670   1.4031   0.00910   0.00575  -0.1375  0.6416  0.8309
   7.680   1.4029   0.00910   0.00575  -0.1373  0.6413  0.8309
   7.690   1.4031   0.00908   0.00573  -0.1371  0.6408  0.8310
   7.700   1.4047   0.00911   0.00576  -0.1373  0.6413  0.8310
   7.710   1.4057   0.00911   0.00577  -0.1373  0.6413  0.8310
   7.720   1.4063   0.00911   0.00577  -0.1372  0.6412  0.8310
   7.730   1.4072   0.00912   0.00577  -0.1372  0.6411  0.8310
   7.740   1.4082   0.00912   0.00578  -0.1372  0.6411  0.8310
   7.750   1.4091   0.00912   0.00578  -0.1372  0.6410  0.8310
   7.760   1.4101   0.00912   0.00577  -0.1372  0.6408  0.8310
   7.770   1.4110   0.00912   0.00577  -0.1372  0.6408  0.8310
   7.780   1.4119   0.00913   0.00578  -0.1372  0.6409  0.8310
   7.790   1.4131   0.00913   0.00578  -0.1372  0.6407  0.8310
   7.800   1.4140   0.00913   0.00579  -0.1372  0.6407  0.8310
   7.810   1.4151   0.00913   0.00578  -0.1373  0.6405  0.8310
   7.820   1.4164   0.00913   0.00578  -0.1373  0.6405  0.8310
   7.830   1.4175   0.00913   0.00578  -0.1374  0.6404  0.8310
   7.840   1.4187   0.00913   0.00578  -0.1374  0.6403  0.8310
   7.850   1.4196   0.00913   0.00579  -0.1374  0.6403  0.8310
   7.860   1.4211   0.00913   0.00578  -0.1375  0.6402  0.8310
   7.870   1.4240   0.00911   0.00575  -0.1379  0.6398  0.8310
   7.880   1.4234   0.00913   0.00578  -0.1376  0.6401  0.8310
   7.890   1.4245   0.00914   0.00579  -0.1376  0.6401  0.8310
   7.900   1.4256   0.00914   0.00579  -0.1377  0.6400  0.8310
   7.910   1.4248   0.00915   0.00580  -0.1373  0.6396  0.8311
   7.920   1.4246   0.00917   0.00582  -0.1371  0.6396  0.8311
   7.930   1.4296   0.00914   0.00578  -0.1379  0.6397  0.8310
   7.940   1.4294   0.00915   0.00580  -0.1376  0.6397  0.8311
   7.950   1.4283   0.00917   0.00583  -0.1373  0.6396  0.8311
   7.960   1.4283   0.00919   0.00585  -0.1371  0.6396  0.8311
   7.970   1.4264   0.00922   0.00588  -0.1365  0.6394  0.8312
   7.980   1.4266   0.00923   0.00590  -0.1364  0.6394  0.8312
   7.990   1.4161   0.00935   0.00603  -0.1341  0.6386  0.8313
   8.000   1.4273   0.00925   0.00592  -0.1361  0.6393  0.8312
   8.010   1.4256   0.00928   0.00596  -0.1356  0.6391  0.8312
   8.020   1.4209   0.00934   0.00603  -0.1345  0.6388  0.8313
   8.030   1.4262   0.00930   0.00599  -0.1354  0.6391  0.8312
   8.040   1.4289   0.00929   0.00597  -0.1357  0.6392  0.8312
   8.050   1.4276   0.00932   0.00601  -0.1352  0.6390  0.8313
   8.060   1.4279   0.00933   0.00602  -0.1351  0.6390  0.8313
   8.070   1.4300   0.00933   0.00601  -0.1353  0.6391  0.8313
   8.080   1.4192   0.00945   0.00616  -0.1330  0.6382  0.8314
   8.090   1.4263   0.00939   0.00609  -0.1343  0.6387  0.8313
   8.100   1.4275   0.00940   0.00610  -0.1343  0.6387  0.8313
   8.110   1.4234   0.00945   0.00616  -0.1333  0.6383  0.8314
   8.120   1.4251   0.00945   0.00616  -0.1335  0.6383  0.8314
   8.130   1.4281   0.00944   0.00614  -0.1339  0.6385  0.8314
   8.140   1.4252   0.00948   0.00619  -0.1331  0.6382  0.8314
   8.150   1.4274   0.00947   0.00619  -0.1334  0.6383  0.8314
   8.160   1.4239   0.00953   0.00625  -0.1325  0.6379  0.8314
   8.170   1.4265   0.00952   0.00623  -0.1328  0.6381  0.8314
   8.180   1.4273   0.00952   0.00624  -0.1328  0.6380  0.8314
   8.190   1.4250   0.00957   0.00629  -0.1322  0.6377  0.8315
   8.200   1.4278   0.00955   0.00627  -0.1325  0.6379  0.8315
   8.210   1.4279   0.00957   0.00629  -0.1324  0.6378  0.8315
   8.220   1.4251   0.00961   0.00634  -0.1317  0.6374  0.8315
   8.230   1.4284   0.00959   0.00632  -0.1321  0.6377  0.8315
   8.240   1.4263   0.00963   0.00637  -0.1315  0.6374  0.8315
   8.250   1.4279   0.00963   0.00637  -0.1317  0.6375  0.8315
   8.260   1.4298   0.00963   0.00636  -0.1318  0.6376  0.8315
   8.270   1.4265   0.00968   0.00642  -0.1310  0.6371  0.8316
   8.280   1.4177   0.00980   0.00654  -0.1291  0.6356  0.8317
   8.290   1.4240   0.00974   0.00649  -0.1302  0.6365  0.8316
   8.300   1.4219   0.00978   0.00653  -0.1296  0.6360  0.8316
   8.310   1.4274   0.00974   0.00648  -0.1305  0.6367  0.8316
   8.320   1.4216   0.00982   0.00657  -0.1292  0.6357  0.8317
   8.330   1.4255   0.00979   0.00655  -0.1298  0.6362  0.8316
   8.340   1.4290   0.00977   0.00652  -0.1303  0.6365  0.8316
   8.350   1.4280   0.00980   0.00655  -0.1299  0.6363  0.8317
   8.360   1.4287   0.00981   0.00656  -0.1298  0.6362  0.8317
   8.370   1.4286   0.00983   0.00658  -0.1296  0.6361  0.8317
   8.380   1.4252   0.00988   0.00664  -0.1288  0.6354  0.8317
   8.390   1.4293   0.00985   0.00661  -0.1294  0.6359  0.8317
   8.400   1.4269   0.00989   0.00666  -0.1288  0.6354  0.8317
   8.410   1.4243   0.00994   0.00670  -0.1281  0.6347  0.8318
   8.420   1.4322   0.00987   0.00664  -0.1294  0.6360  0.8317
   8.430   1.4282   0.00993   0.00670  -0.1285  0.6351  0.8318
   8.440   1.4330   0.00989   0.00666  -0.1292  0.6358  0.8317
   8.450   1.4330   0.00991   0.00668  -0.1291  0.6357  0.8317
   8.460   1.4314   0.00995   0.00672  -0.1286  0.6352  0.8318
   8.470   1.4320   0.00996   0.00673  -0.1285  0.6351  0.8318
   8.480   1.4309   0.00998   0.00676  -0.1281  0.6348  0.8318
   8.490   1.4297   0.01002   0.00679  -0.1277  0.6344  0.8318
   8.500   1.4303   0.01003   0.00680  -0.1277  0.6343  0.8318
   8.510   1.4338   0.01000   0.00678  -0.1281  0.6348  0.8318
   8.520   1.4350   0.01001   0.00679  -0.1282  0.6349  0.8318
   8.530   1.4272   0.01012   0.00690  -0.1265  0.6333  0.8319
   8.540   1.4344   0.01005   0.00683  -0.1277  0.6345  0.8319
   8.550   1.4317   0.01010   0.00688  -0.1271  0.6338  0.8319
   8.560   1.4344   0.01009   0.00687  -0.1274  0.6341  0.8319
   8.570   1.4365   0.01008   0.00686  -0.1276  0.6344  0.8319
   8.580   1.4326   0.01015   0.00693  -0.1267  0.6335  0.8319
   8.590   1.4374   0.01010   0.00689  -0.1274  0.6342  0.8319
   8.600   1.4365   0.01013   0.00692  -0.1271  0.6339  0.8319
   8.610   1.4362   0.01015   0.00694  -0.1268  0.6337  0.8319
   8.620   1.4367   0.01017   0.00696  -0.1268  0.6336  0.8319
   8.630   1.4380   0.01017   0.00696  -0.1269  0.6337  0.8319
   8.640   1.4367   0.01020   0.00700  -0.1264  0.6333  0.8320
   8.650   1.4411   0.01017   0.00696  -0.1271  0.6340  0.8319
   8.660   1.4379   0.01023   0.00702  -0.1263  0.6332  0.8320
   8.670   1.4389   0.01023   0.00703  -0.1263  0.6332  0.8320
   8.680   1.4415   0.01022   0.00701  -0.1266  0.6335  0.8320
   8.690   1.4401   0.01025   0.00705  -0.1262  0.6331  0.8320
   8.700   1.4418   0.01025   0.00705  -0.1263  0.6333  0.8320
   8.710   1.4393   0.01030   0.00709  -0.1257  0.6324  0.8320
   8.720   1.4419   0.01029   0.00709  -0.1260  0.6329  0.8320
   8.730   1.4442   0.01028   0.00708  -0.1263  0.6332  0.8320
   8.740   1.4404   0.01033   0.00711  -0.1254  0.6317  0.8321
   8.750   1.4429   0.01033   0.00712  -0.1257  0.6324  0.8321
   8.760   1.4416   0.01034   0.00711  -0.1252  0.6311  0.8321
   8.770   1.4432   0.01035   0.00714  -0.1254  0.6319  0.8321
   8.780   1.4449   0.01035   0.00715  -0.1255  0.6322  0.8321
   8.790   1.4464   0.01036   0.00716  -0.1256  0.6325  0.8321
   8.800   1.4454   0.01038   0.00717  -0.1253  0.6316  0.8321
   8.810   1.4460   0.01038   0.00717  -0.1252  0.6314  0.8321
   8.820   1.4472   0.01039   0.00719  -0.1253  0.6317  0.8321
   8.830   1.4476   0.01039   0.00718  -0.1252  0.6311  0.8321
   8.840   1.4464   0.01044   0.00722  -0.1248  0.6306  0.8322
   8.850   1.4496   0.01042   0.00721  -0.1252  0.6315  0.8321
   8.860   1.4505   0.01042   0.00722  -0.1252  0.6316  0.8321
   8.870   1.4484   0.01047   0.00726  -0.1246  0.6306  0.8322
   8.880   1.4522   0.01044   0.00724  -0.1252  0.6316  0.8322
   8.890   1.4529   0.01044   0.00724  -0.1251  0.6312  0.8322
   8.900   1.4538   0.01045   0.00725  -0.1251  0.6313  0.8322
   8.910   1.4547   0.01044   0.00724  -0.1251  0.6308  0.8322
   8.920   1.4557   0.01045   0.00725  -0.1251  0.6309  0.8322
   8.930   1.4446   0.01072   0.00753  -0.1229  0.6296  0.8323
   8.940   1.4552   0.01051   0.00731  -0.1247  0.6306  0.8322
   8.950   1.4433   0.01081   0.00763  -0.1224  0.6292  0.8323
   8.960   1.4474   0.01074   0.00756  -0.1229  0.6296  0.8323
   8.970   1.4548   0.01060   0.00741  -0.1241  0.6303  0.8323
   8.980   1.4547   0.01063   0.00744  -0.1239  0.6302  0.8323
   8.990   1.4577   0.01059   0.00740  -0.1243  0.6304  0.8323
   9.000   1.4537   0.01071   0.00753  -0.1234  0.6300  0.8323
   9.010   1.4528   0.01075   0.00758  -0.1231  0.6298  0.8323
   9.020   1.4566   0.01069   0.00752  -0.1236  0.6301  0.8323
   9.030   1.4434   0.01103   0.00787  -0.1211  0.6282  0.8324
   9.040   1.4441   0.01104   0.00789  -0.1210  0.6282  0.8324
   9.050   1.4426   0.01111   0.00796  -0.1206  0.6278  0.8325
   9.060   1.4552   0.01084   0.00768  -0.1227  0.6296  0.8324
   9.070   1.4502   0.01098   0.00783  -0.1216  0.6288  0.8324
   9.080   1.4484   0.01106   0.00791  -0.1212  0.6284  0.8325
   9.090   1.4499   0.01105   0.00790  -0.1213  0.6285  0.8325
   9.100   1.4519   0.01103   0.00788  -0.1214  0.6287  0.8325
   9.110   1.4479   0.01116   0.00802  -0.1206  0.6279  0.8325
   9.120   1.4512   0.01111   0.00796  -0.1210  0.6283  0.8325
   9.130   1.4546   0.01105   0.00791  -0.1214  0.6287  0.8325
   9.140   1.4446   0.01133   0.00820  -0.1195  0.6268  0.8326
   9.150   1.4461   0.01132   0.00819  -0.1196  0.6270  0.8326
   9.160   1.4460   0.01136   0.00823  -0.1194  0.6268  0.8326
   9.170   1.4419   0.01149   0.00836  -0.1186  0.6257  0.8326
   9.180   1.4444   0.01146   0.00833  -0.1188  0.6261  0.8326
   9.190   1.4439   0.01150   0.00838  -0.1186  0.6258  0.8327
   9.200   1.4477   0.01143   0.00831  -0.1191  0.6265  0.8326
   9.210   1.4471   0.01148   0.00836  -0.1188  0.6262  0.8327
   9.220   1.4476   0.01150   0.00838  -0.1187  0.6261  0.8327
   9.230   1.4524   0.01141   0.00829  -0.1194  0.6270  0.8326
   9.240   1.4463   0.01160   0.00848  -0.1182  0.6255  0.8327
   9.250   1.4501   0.01153   0.00841  -0.1187  0.6261  0.8327
   9.260   1.4453   0.01168   0.00857  -0.1177  0.6249  0.8327
   9.270   1.4457   0.01171   0.00860  -0.1176  0.6248  0.8328
   9.280   1.4542   0.01152   0.00841  -0.1189  0.6265  0.8327
   9.290   1.4460   0.01176   0.00865  -0.1173  0.6245  0.8328
   9.300   1.4425   0.01188   0.00876  -0.1166  0.6232  0.8328
   9.310   1.4511   0.01169   0.00859  -0.1179  0.6254  0.8328
   9.320   1.4481   0.01180   0.00870  -0.1172  0.6245  0.8328
   9.330   1.4478   0.01184   0.00874  -0.1170  0.6242  0.8328
   9.340   1.4536   0.01172   0.00862  -0.1179  0.6255  0.8328
   9.350   1.4501   0.01184   0.00875  -0.1171  0.6245  0.8328
   9.360   1.4478   0.01193   0.00882  -0.1166  0.6235  0.8329
   9.370   1.4488   0.01194   0.00883  -0.1166  0.6236  0.8329
   9.380   1.4467   0.01202   0.00890  -0.1160  0.6225  0.8329
   9.390   1.4447   0.01210   0.00898  -0.1155  0.6217  0.8329
   9.400   1.4500   0.01200   0.00890  -0.1163  0.6232  0.8329
   9.410   1.4480   0.01208   0.00896  -0.1158  0.6222  0.8329
   9.420   1.4455   0.01219   0.00907  -0.1152  0.6215  0.8330
   9.430   1.4515   0.01205   0.00895  -0.1161  0.6229  0.8329
   9.440   1.4537   0.01203   0.00894  -0.1163  0.6235  0.8329
   9.450   1.4551   0.01203   0.00894  -0.1164  0.6237  0.8329
   9.460   1.4519   0.01213   0.00903  -0.1157  0.6223  0.8330
   9.470   1.4487   0.01227   0.00917  -0.1150  0.6214  0.8330
   9.480   1.4510   0.01223   0.00912  -0.1152  0.6217  0.8330
   9.490   1.4541   0.01217   0.00907  -0.1156  0.6223  0.8330
   9.500   1.4523   0.01226   0.00916  -0.1151  0.6217  0.8330
   9.510   1.4565   0.01218   0.00908  -0.1157  0.6226  0.8330
   9.520   1.4579   0.01217   0.00909  -0.1158  0.6229  0.8330
   9.530   1.4544   0.01231   0.00921  -0.1150  0.6217  0.8330
   9.540   1.4498   0.01249   0.00941  -0.1141  0.6206  0.8331
   9.550   1.4495   0.01254   0.00946  -0.1139  0.6203  0.8331
   9.560   1.4481   0.01263   0.00955  -0.1135  0.6197  0.8331
   9.570   1.4525   0.01252   0.00944  -0.1141  0.6207  0.8331
   9.580   1.4526   0.01255   0.00947  -0.1140  0.6205  0.8331
   9.590   1.4490   0.01271   0.00964  -0.1132  0.6193  0.8332
   9.600   1.4614   0.01234   0.00925  -0.1151  0.6220  0.8331
   9.610   1.4497   0.01276   0.00969  -0.1130  0.6192  0.8332
   9.620   1.4474   0.01288   0.00981  -0.1125  0.6184  0.8332
   9.630   1.4525   0.01274   0.00968  -0.1132  0.6196  0.8332
