  
       XFOIL         Version 6.94
  
 Calculated polar for: 1080                                            
  
 1 1 Reynolds number fixed          Mach number fixed         
  
 xtrf =   1.000 (top)        1.000 (bottom)  
 Mach =   0.000     Re =     2.000 e 6     Ncrit =   9.000
  
  alpha     CL        CD       CDp       CM    Top_Xtr Bot_Xtr
 ------- -------- --------- --------- -------- ------- -------
   6.000   1.3363   0.00772   0.00363  -0.1267  0.5296  0.7852
   6.010   1.3374   0.00772   0.00364  -0.1268  0.5297  0.7852
   6.020   1.3388   0.00773   0.00365  -0.1268  0.5299  0.7852
   6.030   1.3397   0.00773   0.00365  -0.1268  0.5298  0.7852
   6.040   1.3410   0.00774   0.00365  -0.1269  0.5299  0.7852
   6.050   1.3419   0.00774   0.00366  -0.1269  0.5298  0.7853
   6.060   1.3426   0.00773   0.00365  -0.1268  0.5296  0.7853
   6.070   1.3421   0.00769   0.00362  -0.1265  0.5283  0.7853
   6.080   1.3445   0.00773   0.00365  -0.1268  0.5295  0.7853
   6.090   1.3443   0.00770   0.00363  -0.1265  0.5284  0.7854
   6.100   1.3460   0.00772   0.00365  -0.1266  0.5290  0.7854
   6.110   1.3470   0.00772   0.00365  -0.1266  0.5290  0.7854
   6.120   1.3481   0.00773   0.00365  -0.1267  0.5290  0.7854
   6.130   1.3490   0.00773   0.00365  -0.1266  0.5289  0.7855
   6.140   1.3488   0.00769   0.00363  -0.1264  0.5277  0.7855
   6.150   1.3508   0.00772   0.00365  -0.1266  0.5286  0.7855
   6.160   1.3517   0.00772   0.00365  -0.1266  0.5285  0.7855
   6.170   1.3508   0.00767   0.00360  -0.1261  0.5265  0.7856
   6.180   1.3532   0.00771   0.00365  -0.1264  0.5279  0.7856
   6.190   1.3548   0.00773   0.00366  -0.1266  0.5284  0.7856
   6.200   1.3554   0.00772   0.00366  -0.1265  0.5281  0.7856
   6.210   1.3566   0.00772   0.00366  -0.1265  0.5282  0.7857
   6.220   1.3576   0.00773   0.00367  -0.1265  0.5281  0.7857
   6.230   1.3578   0.00771   0.00365  -0.1263  0.5273  0.7857
   6.240   1.3588   0.00771   0.00365  -0.1263  0.5272  0.7858
   6.250   1.3595   0.00770   0.00364  -0.1262  0.5268  0.7858
   6.260   1.3619   0.00774   0.00368  -0.1266  0.5282  0.7858
   6.270   1.3609   0.00769   0.00363  -0.1261  0.5262  0.7858
   6.280   1.3627   0.00771   0.00366  -0.1263  0.5270  0.7858
   6.290   1.3626   0.00769   0.00363  -0.1260  0.5258  0.7859
   6.300   1.3653   0.00773   0.00368  -0.1264  0.5275  0.7859
   6.310   1.3655   0.00771   0.00366  -0.1262  0.5266  0.7859
   6.320   1.3667   0.00772   0.00367  -0.1263  0.5268  0.7859
   6.330   1.3682   0.00773   0.00368  -0.1264  0.5272  0.7859
   6.340   1.3662   0.00769   0.00363  -0.1257  0.5245  0.7860
   6.350   1.3695   0.00772   0.00367  -0.1262  0.5264  0.7860
   6.360   1.3707   0.00773   0.00368  -0.1263  0.5266  0.7860
   6.370   1.3708   0.00771   0.00366  -0.1260  0.5257  0.7861
   6.380   1.3711   0.00771   0.00365  -0.1259  0.5251  0.7861
   6.390   1.3730   0.00772   0.00367  -0.1261  0.5258  0.7861
   6.400   1.3688   0.00771   0.00362  -0.1250  0.5217  0.7862
   6.410   1.3698   0.00769   0.00361  -0.1250  0.5201  0.7862
   6.420   1.3759   0.00773   0.00368  -0.1261  0.5256  0.7862
   6.430   1.3764   0.00772   0.00367  -0.1259  0.5251  0.7862
   6.440   1.3777   0.00773   0.00368  -0.1260  0.5254  0.7862
   6.450   1.3763   0.00772   0.00366  -0.1255  0.5236  0.7863
   6.460   1.3767   0.00773   0.00366  -0.1254  0.5232  0.7863
   6.470   1.3793   0.00773   0.00367  -0.1257  0.5242  0.7863
   6.480   1.3802   0.00773   0.00368  -0.1257  0.5241  0.7863
   6.490   1.3780   0.00773   0.00365  -0.1250  0.5213  0.7864
   6.500   1.3791   0.00774   0.00367  -0.1250  0.5219  0.7864
   6.510   1.3831   0.00774   0.00369  -0.1256  0.5240  0.7864
   6.520   1.3830   0.00775   0.00368  -0.1254  0.5233  0.7864
   6.530   1.3821   0.00773   0.00367  -0.1250  0.5209  0.7865
   6.540   1.3831   0.00775   0.00368  -0.1250  0.5217  0.7865
   6.550   1.3836   0.00770   0.00364  -0.1249  0.5176  0.7866
   6.560   1.3882   0.00775   0.00371  -0.1257  0.5240  0.7865
   6.570   1.3832   0.00771   0.00363  -0.1243  0.5145  0.7866
   6.580   1.3820   0.00773   0.00363  -0.1239  0.5106  0.7867
   6.590   1.3841   0.00773   0.00364  -0.1241  0.5136  0.7867
   6.600   1.3840   0.00773   0.00363  -0.1239  0.5108  0.7868
   6.610   1.3842   0.00774   0.00363  -0.1237  0.5076  0.7868
   6.620   1.3839   0.00775   0.00364  -0.1235  0.5056  0.7868
   6.630   1.3870   0.00774   0.00364  -0.1239  0.5099  0.7868
   6.640   1.3880   0.00774   0.00365  -0.1239  0.5105  0.7868
   6.650   1.3942   0.00775   0.00370  -0.1250  0.5195  0.7868
   6.660   1.3901   0.00775   0.00366  -0.1239  0.5112  0.7869
   6.670   1.3961   0.00774   0.00370  -0.1249  0.5185  0.7868
   6.680   1.3955   0.00774   0.00368  -0.1246  0.5157  0.7869
   6.690   1.3939   0.00776   0.00368  -0.1241  0.5134  0.7869
   6.700   1.3889   0.00782   0.00368  -0.1228  0.5007  0.7870
   6.710   1.3986   0.00775   0.00369  -0.1246  0.5156  0.7869
   6.720   1.3923   0.00781   0.00368  -0.1231  0.5039  0.7871
   6.730   1.3941   0.00780   0.00368  -0.1233  0.5047  0.7871
   6.740   1.3936   0.00782   0.00370  -0.1230  0.5033  0.7871
   6.750   1.3991   0.00778   0.00370  -0.1239  0.5109  0.7871
   6.760   1.4001   0.00778   0.00370  -0.1239  0.5113  0.7871
   6.770   1.4032   0.00777   0.00371  -0.1243  0.5143  0.7871
   6.780   1.3973   0.00784   0.00371  -0.1229  0.5024  0.7872
   6.790   1.3988   0.00783   0.00372  -0.1230  0.5035  0.7872
   6.800   1.3974   0.00787   0.00373  -0.1225  0.4973  0.7873
   6.810   1.3981   0.00788   0.00374  -0.1225  0.4968  0.7873
   6.820   1.4022   0.00784   0.00373  -0.1231  0.5038  0.7873
   6.830   1.4024   0.00785   0.00373  -0.1229  0.5026  0.7873
   6.840   1.4013   0.00789   0.00375  -0.1225  0.4970  0.7874
   6.850   1.4025   0.00789   0.00375  -0.1225  0.4973  0.7874
   6.860   1.4069   0.00784   0.00374  -0.1232  0.5044  0.7874
   6.870   1.4051   0.00788   0.00376  -0.1227  0.4984  0.7874
   6.880   1.4122   0.00782   0.00375  -0.1239  0.5113  0.7874
   6.890   1.4019   0.00798   0.00381  -0.1216  0.4905  0.7876
   6.900   1.4023   0.00800   0.00382  -0.1215  0.4893  0.7876
   6.910   1.4055   0.00796   0.00380  -0.1219  0.4940  0.7876
   6.920   1.4084   0.00793   0.00379  -0.1223  0.4959  0.7876
   6.930   1.4117   0.00789   0.00378  -0.1228  0.4996  0.7876
   6.940   1.4008   0.00811   0.00390  -0.1204  0.4823  0.7878
   6.950   1.4091   0.00798   0.00382  -0.1218  0.4933  0.7877
   6.960   1.4063   0.00805   0.00387  -0.1211  0.4865  0.7878
   6.970   1.3963   0.00828   0.00402  -0.1190  0.4733  0.7880
   6.980   1.3989   0.00825   0.00400  -0.1193  0.4754  0.7880
   6.990   1.3973   0.00830   0.00404  -0.1188  0.4721  0.7880
   7.000   1.3856   0.00858   0.00424  -0.1164  0.4586  0.7882
   7.010   1.4066   0.00816   0.00395  -0.1202  0.4806  0.7880
   7.020   1.3947   0.00843   0.00413  -0.1177  0.4662  0.7882
   7.030   1.4164   0.00801   0.00386  -0.1217  0.4915  0.7879
   7.040   1.4156   0.00805   0.00389  -0.1214  0.4882  0.7879
   7.050   1.3877   0.00866   0.00431  -0.1158  0.4563  0.7884
   7.060   1.3959   0.00851   0.00419  -0.1172  0.4633  0.7883
   7.070   1.4135   0.00816   0.00396  -0.1204  0.4823  0.7881
   7.080   1.3731   0.00907   0.00462  -0.1125  0.4404  0.7887
   7.090   1.4038   0.00841   0.00413  -0.1181  0.4683  0.7883
   7.100   1.3972   0.00858   0.00425  -0.1167  0.4605  0.7884
   7.110   1.3958   0.00863   0.00430  -0.1162  0.4581  0.7885
   7.120   1.3999   0.00857   0.00425  -0.1168  0.4613  0.7885
   7.130   1.3994   0.00860   0.00428  -0.1165  0.4597  0.7885
   7.140   1.4077   0.00844   0.00417  -0.1179  0.4674  0.7885
   7.150   1.3723   0.00927   0.00480  -0.1111  0.4346  0.7890
   7.160   1.3923   0.00884   0.00446  -0.1146  0.4505  0.7888
   7.170   1.3800   0.00914   0.00470  -0.1121  0.4393  0.7890
   7.180   1.4071   0.00856   0.00426  -0.1170  0.4629  0.7886
   7.190   1.4088   0.00854   0.00425  -0.1172  0.4638  0.7886
   7.200   1.3837   0.00913   0.00470  -0.1123  0.4399  0.7891
   7.210   1.4022   0.00874   0.00440  -0.1155  0.4556  0.7888
   7.220   1.4001   0.00881   0.00446  -0.1149  0.4524  0.7889
   7.230   1.3964   0.00892   0.00454  -0.1141  0.4485  0.7890
   7.240   1.3995   0.00887   0.00451  -0.1145  0.4503  0.7890
   7.250   1.3941   0.00902   0.00462  -0.1133  0.4453  0.7891
   7.260   1.3811   0.00935   0.00488  -0.1107  0.4335  0.7893
   7.270   1.3960   0.00903   0.00463  -0.1132  0.4453  0.7892
   7.280   1.4058   0.00883   0.00448  -0.1149  0.4526  0.7890
   7.290   1.3909   0.00920   0.00477  -0.1119  0.4391  0.7893
   7.300   1.3969   0.00909   0.00468  -0.1129  0.4435  0.7893
   7.310   1.3848   0.00939   0.00493  -0.1105  0.4329  0.7895
   7.320   1.3916   0.00926   0.00483  -0.1115  0.4377  0.7894
   7.330   1.3931   0.00925   0.00482  -0.1116  0.4381  0.7894
   7.340   1.4077   0.00894   0.00458  -0.1141  0.4493  0.7893
   7.350   1.4008   0.00912   0.00472  -0.1127  0.4428  0.7894
   7.360   1.4003   0.00916   0.00476  -0.1124  0.4414  0.7895
   7.370   1.3541   0.01028   0.00568  -0.1039  0.4075  0.7902
   7.380   1.3874   0.00951   0.00504  -0.1097  0.4300  0.7897
   7.390   1.3775   0.00977   0.00525  -0.1077  0.4220  0.7899
   7.400   1.3967   0.00935   0.00491  -0.1110  0.4362  0.7897
   7.410   1.3750   0.00988   0.00535  -0.1069  0.4191  0.7901
   7.420   1.3928   0.00949   0.00503  -0.1099  0.4314  0.7898
   7.430   1.3869   0.00965   0.00516  -0.1087  0.4269  0.7900
   7.440   1.3873   0.00967   0.00518  -0.1086  0.4264  0.7900
   7.450   1.3779   0.00992   0.00539  -0.1067  0.4188  0.7902
   7.460   1.3573   0.01045   0.00584  -0.1029  0.4043  0.7906
   7.470   1.3748   0.01004   0.00550  -0.1058  0.4156  0.7904
   7.480   1.3912   0.00968   0.00520  -0.1086  0.4267  0.7901
   7.490   1.3843   0.00987   0.00536  -0.1071  0.4207  0.7903
   7.500   1.3862   0.00985   0.00535  -0.1073  0.4213  0.7903
   7.510   1.3542   0.01067   0.00604  -0.1015  0.3996  0.7909
   7.520   1.3716   0.01026   0.00570  -0.1044  0.4103  0.7906
   7.530   1.3754   0.01019   0.00564  -0.1048  0.4122  0.7906
   7.540   1.3645   0.01049   0.00590  -0.1028  0.4047  0.7908
   7.550   1.3870   0.00997   0.00545  -0.1066  0.4191  0.7905
   7.560   1.3744   0.01030   0.00574  -0.1042  0.4100  0.7908
   7.570   1.3721   0.01039   0.00581  -0.1036  0.4083  0.7909
   7.580   1.3604   0.01071   0.00610  -0.1014  0.4000  0.7911
   7.590   1.3810   0.01022   0.00568  -0.1048  0.4126  0.7908
   7.600   1.3638   0.01068   0.00607  -0.1017  0.4010  0.7911
   7.610   1.3623   0.01075   0.00614  -0.1012  0.3997  0.7912
   7.620   1.3600   0.01084   0.00622  -0.1007  0.3981  0.7913
   7.630   1.3642   0.01076   0.00615  -0.1012  0.3998  0.7913
   7.640   1.3630   0.01082   0.00620  -0.1009  0.3988  0.7913
   7.650   1.3356   0.01160   0.00690  -0.0962  0.3820  0.7919
   7.660   1.3814   0.01041   0.00585  -0.1037  0.4092  0.7911
   7.670   1.3449   0.01140   0.00672  -0.0973  0.3869  0.7918
   7.680   1.3798   0.01050   0.00594  -0.1031  0.4076  0.7912
   7.690   1.3505   0.01131   0.00665  -0.0980  0.3890  0.7918
   7.700   1.3533   0.01126   0.00661  -0.0983  0.3900  0.7918
   7.710   1.3703   0.01083   0.00623  -0.1009  0.3996  0.7915
   7.720   1.3416   0.01166   0.00696  -0.0960  0.3825  0.7921
   7.730   1.3554   0.01129   0.00664  -0.0981  0.3900  0.7919
   7.740   1.3515   0.01144   0.00677  -0.0973  0.3879  0.7920
   7.750   1.3102   0.01275   0.00798  -0.0907  0.3650  0.7928
   7.760   1.3104   0.01279   0.00801  -0.0906  0.3647  0.7928
   7.770   1.3420   0.01181   0.00712  -0.0953  0.3807  0.7923
   7.780   1.3928   0.01046   0.00592  -0.1036  0.4101  0.7915
   7.790   1.3008   0.01325   0.00845  -0.0888  0.3590  0.7931
   7.800   1.3131   0.01285   0.00808  -0.0905  0.3647  0.7929
   7.810   1.3543   0.01158   0.00692  -0.0967  0.3863  0.7923
   7.820   1.3377   0.01212   0.00741  -0.0939  0.3769  0.7926
   7.830   1.3121   0.01300   0.00823  -0.0899  0.3631  0.7931
   7.840   1.3447   0.01197   0.00728  -0.0947  0.3796  0.7926
   7.850   1.2650   0.01499   0.01012  -0.0832  0.3402  0.7938
   7.860   1.3181   0.01291   0.00815  -0.0903  0.3653  0.7931
   7.870   1.3758   0.01117   0.00656  -0.0993  0.3959  0.7922
   7.880   1.3175   0.01302   0.00825  -0.0900  0.3642  0.7932
   7.890   1.3490   0.01201   0.00733  -0.0946  0.3799  0.7927
   7.900   1.3379   0.01240   0.00769  -0.0927  0.3738  0.7930
   7.910   1.3302   0.01269   0.00796  -0.0914  0.3696  0.7931
   7.920   1.3567   0.01188   0.00721  -0.0954  0.3829  0.7927
   7.930   1.3086   0.01355   0.00877  -0.0880  0.3586  0.7935
   7.940   1.3450   0.01232   0.00762  -0.0932  0.3763  0.7930
   7.950   1.3129   0.01347   0.00870  -0.0884  0.3598  0.7936
   7.960   1.3529   0.01214   0.00746  -0.0942  0.3794  0.7930
   7.970   1.2901   0.01449   0.00967  -0.0850  0.3488  0.7939
   7.980   1.3285   0.01303   0.00829  -0.0902  0.3668  0.7935
   7.990   1.3102   0.01376   0.00897  -0.0875  0.3578  0.7938
   8.000   1.2982   0.01429   0.00948  -0.0857  0.3514  0.7939
   8.010   1.2752   0.01537   0.01052  -0.0826  0.3408  0.7943
   8.020   1.2856   0.01494   0.01011  -0.0838  0.3455  0.7942
   8.030   1.2478   0.01687   0.01197  -0.0791  0.3286  0.7947
   8.040   1.3227   0.01349   0.00874  -0.0886  0.3617  0.7938
   8.050   1.3308   0.01323   0.00850  -0.0896  0.3655  0.7937
   8.060   1.2991   0.01455   0.00974  -0.0851  0.3503  0.7942
   8.070   1.3236   0.01359   0.00884  -0.0883  0.3612  0.7939
   8.080   1.2695   0.01604   0.01118  -0.0811  0.3371  0.7946
   8.090   1.3097   0.01424   0.00946  -0.0861  0.3544  0.7941
   8.100   1.2764   0.01581   0.01096  -0.0818  0.3394  0.7946
   8.110   1.3214   0.01386   0.00910  -0.0875  0.3593  0.7941
   8.120   1.3250   0.01376   0.00901  -0.0878  0.3604  0.7940
   8.130   1.3236   0.01386   0.00911  -0.0875  0.3597  0.7941
   8.140   1.3505   0.01290   0.00821  -0.0912  0.3719  0.7938
   8.150   1.3315   0.01364   0.00890  -0.0884  0.3626  0.7941
   8.160   1.2748   0.01624   0.01139  -0.0809  0.3375  0.7948
   8.180   1.2807   0.01605   0.01122  -0.0814  0.3394  0.7948
   8.190   1.3035   0.01501   0.01022  -0.0841  0.3491  0.7946
   8.200   1.2890   0.01575   0.01094  -0.0822  0.3422  0.7948
   8.210   1.2756   0.01649   0.01165  -0.0805  0.3367  0.7949
   8.220   1.3052   0.01509   0.01031  -0.0840  0.3491  0.7946
   8.230   1.3122   0.01483   0.01005  -0.0848  0.3517  0.7946
   8.240   1.2455   0.01831   0.01343  -0.0768  0.3228  0.7956
   8.250   1.2775   0.01662   0.01179  -0.0803  0.3366  0.7951
   8.260   1.2548   0.01792   0.01305  -0.0776  0.3267  0.7956
   8.270   1.3336   0.01411   0.00938  -0.0871  0.3602  0.7945
   8.280   1.3228   0.01461   0.00986  -0.0856  0.3553  0.7946
   8.290   1.2541   0.01815   0.01328  -0.0773  0.3258  0.7958
   8.300   1.2740   0.01711   0.01227  -0.0794  0.3337  0.7954
   8.310   1.2658   0.01762   0.01277  -0.0784  0.3301  0.7956
   8.320   1.2846   0.01666   0.01185  -0.0804  0.3382  0.7954
   8.330   1.2841   0.01675   0.01193  -0.0802  0.3378  0.7954
   8.340   1.2872   0.01665   0.01184  -0.0805  0.3386  0.7954
   8.350   1.2795   0.01712   0.01230  -0.0795  0.3352  0.7956
   8.360   1.3266   0.01485   0.01010  -0.0851  0.3550  0.7949
   8.370   1.2999   0.01617   0.01138  -0.0817  0.3430  0.7953
   8.380   1.2990   0.01627   0.01148  -0.0815  0.3424  0.7954
   8.390   1.3033   0.01611   0.01133  -0.0819  0.3441  0.7954
   8.400   1.2865   0.01705   0.01224  -0.0798  0.3373  0.7958
   8.410   1.2822   0.01734   0.01253  -0.0792  0.3349  0.7959
   8.420   1.2707   0.01804   0.01321  -0.0778  0.3299  0.7961
   8.430   1.2791   0.01764   0.01282  -0.0787  0.3330  0.7960
   8.440   1.2945   0.01686   0.01207  -0.0803  0.3394  0.7958
   8.450   1.2951   0.01689   0.01211  -0.0803  0.3394  0.7959
   8.460   1.2506   0.01945   0.01460  -0.0753  0.3207  0.7967
   8.470   1.2584   0.01907   0.01423  -0.0760  0.3238  0.7966
   8.480   1.2971   0.01696   0.01218  -0.0802  0.3396  0.7960
   8.490   1.2724   0.01839   0.01357  -0.0774  0.3292  0.7965
   8.500   1.2501   0.01975   0.01490  -0.0749  0.3198  0.7969
   8.510   1.2634   0.01904   0.01421  -0.0762  0.3252  0.7967
   8.520   1.3021   0.01694   0.01217  -0.0804  0.3407  0.7961
   8.530   1.2459   0.02019   0.01534  -0.0741  0.3180  0.7971
   8.540   1.2724   0.01871   0.01390  -0.0769  0.3285  0.7967
   8.550   1.2136   0.02223   0.01733  -0.0706  0.3040  0.7976
   8.560   1.2881   0.01795   0.01316  -0.0784  0.3343  0.7966
   8.570   1.2860   0.01814   0.01335  -0.0781  0.3330  0.7967
   8.580   1.2311   0.02140   0.01653  -0.0722  0.3106  0.7975
   8.590   1.1897   0.02391   0.01897  -0.0678  0.2933  0.7981
   8.600   1.2438   0.02078   0.01593  -0.0733  0.3157  0.7974
   8.610   1.2530   0.02031   0.01548  -0.0742  0.3191  0.7973
   8.620   1.2579   0.02008   0.01526  -0.0746  0.3208  0.7973
   8.630   1.1970   0.02374   0.01883  -0.0682  0.2960  0.7981
   8.640   1.2650   0.01980   0.01499  -0.0752  0.3233  0.7973
   8.650   1.2343   0.02167   0.01682  -0.0719  0.3106  0.7978
   8.660   1.2056   0.02343   0.01854  -0.0688  0.2990  0.7982
   8.670   1.2312   0.02199   0.01713  -0.0714  0.3092  0.7979
   8.680   1.1719   0.02556   0.02060  -0.0652  0.2839  0.7987
   8.690   1.2842   0.01901   0.01424  -0.0767  0.3301  0.7973
   8.700   1.2039   0.02381   0.01891  -0.0683  0.2980  0.7984
   8.710   1.2328   0.02216   0.01731  -0.0712  0.3093  0.7981
   8.720   1.2276   0.02254   0.01768  -0.0705  0.3074  0.7982
   8.730   1.2332   0.02227   0.01743  -0.0710  0.3092  0.7981
   8.740   1.2498   0.02136   0.01654  -0.0727  0.3158  0.7980
   8.750   1.2724   0.02009   0.01531  -0.0749  0.3244  0.7977
   8.760   1.2333   0.02247   0.01763  -0.0708  0.3089  0.7983
   8.770   1.1859   0.02534   0.02041  -0.0659  0.2888  0.7989
   8.780   1.2177   0.02353   0.01866  -0.0690  0.3018  0.7986
   8.790   1.2443   0.02202   0.01719  -0.0716  0.3123  0.7983
   8.800   1.2153   0.02380   0.01893  -0.0686  0.3005  0.7987
   8.810   1.2194   0.02363   0.01877  -0.0689  0.3020  0.7987
   8.820   1.2475   0.02203   0.01722  -0.0717  0.3132  0.7984
   8.830   1.1731   0.02650   0.02155  -0.0641  0.2818  0.7993
   8.840   1.1979   0.02510   0.02020  -0.0665  0.2926  0.7990
   8.850   1.2147   0.02417   0.01930  -0.0681  0.2995  0.7989
   8.860   1.2311   0.02327   0.01843  -0.0697  0.3063  0.7987
   8.870   1.2260   0.02364   0.01880  -0.0691  0.3039  0.7989
   8.880   1.2559   0.02193   0.01713  -0.0720  0.3159  0.7985
   8.890   1.2553   0.02203   0.01724  -0.0719  0.3155  0.7986
   8.900   1.1657   0.02741   0.02245  -0.0627  0.2774  0.7997
   8.910   1.2866   0.02032   0.01558  -0.0750  0.3276  0.7983
   8.920   1.1891   0.02616   0.02125  -0.0649  0.2878  0.7995
   8.930   1.1566   0.02817   0.02319  -0.0616  0.2722  0.7999
   8.940   1.1650   0.02773   0.02277  -0.0623  0.2762  0.7998
   8.950   1.1894   0.02635   0.02144  -0.0647  0.2876  0.7996
   8.960   1.1540   0.02852   0.02354  -0.0611  0.2704  0.8000
   8.970   1.2409   0.02342   0.01861  -0.0697  0.3087  0.7991
   8.980   1.2010   0.02585   0.02097  -0.0656  0.2914  0.7996
   8.990   1.2221   0.02467   0.01983  -0.0676  0.3003  0.7994
   9.000   1.2095   0.02548   0.02062  -0.0663  0.2951  0.7996
   9.010   1.2060   0.02575   0.02088  -0.0658  0.2931  0.7997
   9.020   1.1795   0.02740   0.02248  -0.0631  0.2810  0.8000
   9.030   1.2121   0.02553   0.02067  -0.0663  0.2957  0.7997
   9.040   1.1630   0.02853   0.02357  -0.0613  0.2730  0.8003
   9.050   1.2006   0.02635   0.02148  -0.0650  0.2903  0.7999
   9.060   1.2228   0.02510   0.02027  -0.0671  0.2997  0.7997
   9.070   1.1622   0.02879   0.02383  -0.0610  0.2719  0.8004
   9.080   1.2713   0.02236   0.01761  -0.0719  0.3188  0.7993
   9.090   1.1740   0.02821   0.02328  -0.0620  0.2780  0.8004
   9.100   1.2270   0.02512   0.02030  -0.0672  0.3006  0.7999
   9.110   1.2011   0.02673   0.02186  -0.0645  0.2896  0.8002
   9.120   1.1794   0.02810   0.02318  -0.0623  0.2796  0.8005
   9.130   1.1770   0.02831   0.02339  -0.0620  0.2786  0.8005
   9.140   1.1829   0.02802   0.02311  -0.0625  0.2806  0.8005
   9.150   1.1884   0.02776   0.02286  -0.0629  0.2829  0.8005
   9.160   1.2050   0.02683   0.02198  -0.0645  0.2904  0.8004
   9.170   1.1830   0.02822   0.02331  -0.0622  0.2803  0.8006
   9.180   1.1917   0.02776   0.02287  -0.0630  0.2839  0.8006
   9.190   1.1317   0.03151   0.02646  -0.0572  0.2522  0.8012
   9.200   1.2112   0.02674   0.02189  -0.0647  0.2923  0.8005
   9.210   1.1747   0.02898   0.02406  -0.0611  0.2755  0.8009
   9.220   1.1680   0.02946   0.02452  -0.0604  0.2714  0.8010
   9.230   1.2015   0.02751   0.02265  -0.0635  0.2879  0.8007
   9.240   1.1745   0.02920   0.02427  -0.0608  0.2744  0.8011
   9.250   1.1621   0.03004   0.02509  -0.0596  0.2686  0.8012
   9.260   1.1612   0.03017   0.02521  -0.0594  0.2679  0.8013
   9.270   1.1796   0.02911   0.02419  -0.0611  0.2766  0.8011
   9.280   1.1351   0.03195   0.02691  -0.0569  0.2519  0.8016
   9.290   1.1702   0.02982   0.02489  -0.0600  0.2712  0.8013
   9.300   1.1533   0.03095   0.02596  -0.0584  0.2619  0.8015
   9.310   1.1388   0.03194   0.02691  -0.0570  0.2531  0.8017
   9.320   1.2244   0.02676   0.02195  -0.0651  0.2964  0.8009
   9.330   1.1695   0.03015   0.02521  -0.0597  0.2703  0.8015
   9.340   1.1420   0.03195   0.02693  -0.0570  0.2542  0.8018
   9.350   1.1530   0.03132   0.02633  -0.0580  0.2603  0.8017
   9.360   1.1515   0.03148   0.02649  -0.0578  0.2594  0.8018
   9.370   1.1985   0.02865   0.02379  -0.0621  0.2836  0.8014
