  
       XFOIL         Version 6.94
  
 Calculated polar for: 1080                                            
  
 1 1 Reynolds number fixed          Mach number fixed         
  
 xtrf =   1.000 (top)        1.000 (bottom)  
 Mach =   0.000     Re =     2.000 e 6     Ncrit =   9.000
  
  alpha     CL        CD       CDp       CM    Top_Xtr Bot_Xtr
 ------- -------- --------- --------- -------- ------- -------
   6.000   1.1993   0.00812   0.00362  -0.0922  0.3839  0.7820
   6.010   1.2003   0.00813   0.00362  -0.0922  0.3838  0.7822
   6.020   1.2012   0.00814   0.00363  -0.0922  0.3832  0.7825
   6.030   1.2021   0.00815   0.00364  -0.0921  0.3827  0.7828
   6.040   1.2032   0.00815   0.00364  -0.0921  0.3828  0.7830
   6.050   1.2041   0.00816   0.00365  -0.0921  0.3823  0.7831
   6.060   1.2050   0.00817   0.00366  -0.0921  0.3819  0.7834
   6.070   1.2060   0.00818   0.00367  -0.0921  0.3817  0.7837
   6.080   1.2069   0.00819   0.00368  -0.0920  0.3812  0.7838
   6.090   1.2078   0.00820   0.00368  -0.0920  0.3809  0.7842
   6.100   1.2087   0.00821   0.00369  -0.0920  0.3805  0.7844
   6.110   1.2097   0.00822   0.00370  -0.0920  0.3803  0.7846
   6.120   1.2105   0.00823   0.00371  -0.0919  0.3798  0.7849
   6.130   1.2116   0.00824   0.00371  -0.0919  0.3799  0.7851
   6.140   1.2123   0.00826   0.00373  -0.0918  0.3791  0.7853
   6.150   1.2133   0.00826   0.00373  -0.0918  0.3790  0.7856
   6.160   1.2144   0.00827   0.00374  -0.0918  0.3788  0.7858
   6.170   1.2154   0.00827   0.00374  -0.0918  0.3784  0.7860
   6.180   1.2164   0.00828   0.00375  -0.0918  0.3782  0.7862
   6.190   1.2175   0.00828   0.00375  -0.0918  0.3779  0.7864
   6.200   1.2185   0.00829   0.00376  -0.0918  0.3775  0.7867
   6.210   1.2195   0.00830   0.00376  -0.0918  0.3774  0.7869
   6.220   1.2205   0.00830   0.00377  -0.0918  0.3770  0.7872
   6.230   1.2215   0.00831   0.00378  -0.0918  0.3767  0.7873
   6.240   1.2225   0.00832   0.00378  -0.0917  0.3764  0.7875
   6.250   1.2235   0.00832   0.00379  -0.0917  0.3760  0.7877
   6.260   1.2245   0.00833   0.00380  -0.0917  0.3757  0.7881
   6.270   1.2255   0.00834   0.00380  -0.0917  0.3754  0.7882
   6.280   1.2265   0.00835   0.00381  -0.0917  0.3751  0.7884
   6.290   1.2275   0.00836   0.00381  -0.0917  0.3748  0.7885
   6.310   1.2294   0.00837   0.00383  -0.0916  0.3741  0.7889
   6.320   1.2303   0.00838   0.00384  -0.0916  0.3738  0.7892
   6.330   1.2313   0.00838   0.00384  -0.0916  0.3734  0.7894
   6.340   1.2322   0.00839   0.00385  -0.0916  0.3731  0.7894
   6.350   1.2331   0.00840   0.00386  -0.0915  0.3728  0.7897
   6.360   1.2341   0.00841   0.00387  -0.0915  0.3725  0.7900
   6.370   1.2350   0.00842   0.00388  -0.0915  0.3721  0.7901
   6.380   1.2359   0.00843   0.00388  -0.0914  0.3717  0.7903
   6.390   1.2368   0.00844   0.00389  -0.0914  0.3715  0.7906
   6.400   1.2377   0.00845   0.00390  -0.0914  0.3711  0.7908
   6.410   1.2384   0.00846   0.00391  -0.0913  0.3705  0.7909
   6.420   1.2395   0.00847   0.00392  -0.0913  0.3704  0.7911
   6.430   1.2403   0.00848   0.00393  -0.0913  0.3702  0.7913
   6.440   1.2412   0.00849   0.00394  -0.0912  0.3698  0.7914
   6.450   1.2420   0.00850   0.00395  -0.0912  0.3694  0.7917
   6.460   1.2429   0.00851   0.00395  -0.0912  0.3692  0.7920
   6.470   1.2438   0.00852   0.00396  -0.0911  0.3689  0.7922
   6.480   1.2447   0.00853   0.00397  -0.0911  0.3685  0.7924
   6.490   1.2457   0.00853   0.00398  -0.0911  0.3683  0.7925
   6.500   1.2467   0.00854   0.00398  -0.0911  0.3681  0.7928
   6.510   1.2477   0.00855   0.00399  -0.0911  0.3677  0.7930
   6.520   1.2487   0.00855   0.00400  -0.0910  0.3674  0.7932
   6.530   1.2497   0.00856   0.00400  -0.0910  0.3673  0.7935
   6.540   1.2507   0.00856   0.00401  -0.0910  0.3669  0.7936
   6.550   1.2517   0.00857   0.00401  -0.0910  0.3667  0.7939
   6.560   1.2526   0.00858   0.00402  -0.0910  0.3663  0.7941
   6.570   1.2536   0.00859   0.00403  -0.0910  0.3659  0.7944
   6.580   1.2547   0.00859   0.00403  -0.0910  0.3660  0.7946
   6.590   1.2555   0.00860   0.00404  -0.0909  0.3654  0.7949
   6.600   1.2565   0.00861   0.00405  -0.0909  0.3651  0.7951
   6.610   1.2575   0.00861   0.00406  -0.0909  0.3649  0.7954
   6.620   1.2584   0.00862   0.00406  -0.0909  0.3644  0.7956
   6.630   1.2592   0.00864   0.00407  -0.0908  0.3638  0.7958
   6.640   1.2602   0.00864   0.00408  -0.0908  0.3638  0.7962
   6.650   1.2611   0.00865   0.00409  -0.0908  0.3634  0.7965
   6.660   1.2621   0.00866   0.00409  -0.0908  0.3632  0.7967
   6.670   1.2629   0.00867   0.00410  -0.0907  0.3627  0.7969
   6.680   1.2638   0.00868   0.00411  -0.0907  0.3624  0.7971
   6.690   1.2647   0.00869   0.00412  -0.0906  0.3620  0.7974
   6.700   1.2657   0.00869   0.00413  -0.0906  0.3619  0.7976
   6.710   1.2666   0.00871   0.00414  -0.0906  0.3616  0.7979
   6.720   1.2675   0.00872   0.00414  -0.0906  0.3612  0.7981
   6.730   1.2683   0.00873   0.00415  -0.0905  0.3608  0.7984
   6.740   1.2692   0.00874   0.00416  -0.0905  0.3606  0.7987
   6.750   1.2700   0.00875   0.00417  -0.0904  0.3601  0.7989
   6.760   1.2708   0.00877   0.00418  -0.0904  0.3598  0.7990
   6.770   1.2718   0.00877   0.00419  -0.0904  0.3597  0.7993
   6.780   1.2725   0.00879   0.00420  -0.0903  0.3592  0.7995
   6.800   1.2742   0.00881   0.00422  -0.0902  0.3587  0.8000
   6.810   1.2751   0.00882   0.00423  -0.0902  0.3585  0.8002
   6.820   1.2760   0.00882   0.00424  -0.0902  0.3581  0.8005
   6.830   1.2770   0.00883   0.00424  -0.0902  0.3579  0.8008
   6.840   1.2779   0.00884   0.00425  -0.0901  0.3575  0.8009
   6.850   1.2789   0.00884   0.00426  -0.0901  0.3573  0.8013
   6.860   1.2798   0.00885   0.00426  -0.0901  0.3571  0.8015
   6.870   1.2808   0.00886   0.00427  -0.0901  0.3567  0.8016
   6.880   1.2817   0.00886   0.00428  -0.0900  0.3565  0.8020
   6.890   1.2827   0.00887   0.00429  -0.0900  0.3562  0.8022
   6.900   1.2836   0.00887   0.00429  -0.0900  0.3561  0.8024
   6.910   1.2845   0.00888   0.00430  -0.0900  0.3556  0.8027
   6.920   1.2854   0.00889   0.00431  -0.0899  0.3552  0.8029
   6.930   1.2864   0.00890   0.00431  -0.0899  0.3551  0.8030
   6.940   1.2872   0.00891   0.00432  -0.0899  0.3546  0.8034
   6.950   1.2883   0.00891   0.00433  -0.0899  0.3546  0.8037
   6.960   1.2891   0.00892   0.00434  -0.0898  0.3542  0.8038
   6.970   1.2900   0.00893   0.00435  -0.0898  0.3538  0.8040
   6.980   1.2909   0.00894   0.00436  -0.0898  0.3536  0.8043
   6.990   1.2918   0.00895   0.00436  -0.0897  0.3532  0.8046
   7.000   1.2927   0.00895   0.00437  -0.0897  0.3530  0.8049
   7.010   1.2936   0.00896   0.00438  -0.0897  0.3527  0.8049
   7.020   1.2944   0.00897   0.00439  -0.0896  0.3523  0.8052
   7.030   1.2952   0.00899   0.00440  -0.0896  0.3519  0.8055
   7.040   1.2961   0.00899   0.00441  -0.0895  0.3517  0.8055
   7.050   1.2970   0.00900   0.00442  -0.0895  0.3515  0.8059
   7.060   1.2978   0.00901   0.00443  -0.0895  0.3511  0.8062
   7.070   1.2987   0.00902   0.00443  -0.0894  0.3509  0.8063
   7.080   1.2995   0.00904   0.00444  -0.0894  0.3505  0.8066
   7.090   1.3003   0.00905   0.00445  -0.0893  0.3502  0.8068
   7.100   1.3011   0.00906   0.00446  -0.0893  0.3500  0.8072
   7.110   1.3020   0.00907   0.00447  -0.0893  0.3497  0.8073
   7.120   1.3026   0.00909   0.00449  -0.0892  0.3492  0.8074
   7.130   1.3036   0.00909   0.00449  -0.0892  0.3491  0.8077
   7.140   1.3044   0.00910   0.00450  -0.0891  0.3489  0.8080
   7.150   1.3051   0.00912   0.00451  -0.0891  0.3485  0.8081
   7.160   1.3059   0.00913   0.00452  -0.0890  0.3482  0.8084
   7.170   1.3067   0.00914   0.00453  -0.0890  0.3480  0.8086
   7.180   1.3077   0.00915   0.00454  -0.0889  0.3477  0.8087
   7.190   1.3086   0.00916   0.00455  -0.0889  0.3474  0.8090
   7.200   1.3096   0.00916   0.00455  -0.0889  0.3473  0.8091
   7.210   1.3106   0.00917   0.00456  -0.0889  0.3471  0.8094
   7.220   1.3115   0.00918   0.00457  -0.0889  0.3467  0.8095
   7.230   1.3124   0.00918   0.00457  -0.0888  0.3465  0.8096
   7.240   1.3134   0.00919   0.00458  -0.0888  0.3464  0.8099
   7.250   1.3143   0.00920   0.00459  -0.0888  0.3460  0.8100
   7.260   1.3153   0.00920   0.00459  -0.0888  0.3460  0.8100
   7.270   1.3162   0.00921   0.00460  -0.0887  0.3456  0.8103
   7.280   1.3169   0.00922   0.00461  -0.0887  0.3451  0.8104
   7.320   1.3207   0.00925   0.00464  -0.0886  0.3444  0.8111
   7.330   1.3215   0.00926   0.00465  -0.0885  0.3439  0.8111
   7.340   1.3221   0.00927   0.00466  -0.0885  0.3433  0.8114
   7.350   1.3232   0.00928   0.00466  -0.0885  0.3433  0.8114
   7.360   1.3238   0.00929   0.00468  -0.0884  0.3427  0.8116
   7.370   1.3250   0.00929   0.00468  -0.0884  0.3431  0.8118
   7.380   1.3257   0.00930   0.00469  -0.0883  0.3426  0.8119
   7.390   1.3267   0.00931   0.00470  -0.0883  0.3426  0.8121
   7.400   1.3274   0.00932   0.00471  -0.0883  0.3421  0.8122
   7.410   1.3281   0.00933   0.00472  -0.0882  0.3416  0.8124
   7.420   1.3291   0.00934   0.00472  -0.0882  0.3416  0.8125
   7.430   1.3300   0.00935   0.00473  -0.0881  0.3414  0.8126
   7.440   1.3302   0.00937   0.00475  -0.0880  0.3405  0.8128
   7.450   1.3313   0.00937   0.00476  -0.0880  0.3406  0.8129
   7.460   1.3323   0.00938   0.00476  -0.0880  0.3406  0.8130
   7.470   1.3329   0.00940   0.00478  -0.0879  0.3400  0.8132
   7.480   1.3338   0.00940   0.00478  -0.0879  0.3400  0.8133
   7.490   1.3341   0.00943   0.00480  -0.0877  0.3392  0.8135
   7.500   1.3354   0.00942   0.00480  -0.0878  0.3395  0.8136
   7.510   1.3363   0.00943   0.00481  -0.0878  0.3394  0.8138
   7.520   1.3370   0.00944   0.00482  -0.0877  0.3391  0.8139
   7.530   1.3375   0.00946   0.00484  -0.0876  0.3386  0.8141
   7.540   1.3380   0.00948   0.00485  -0.0875  0.3381  0.8143
   7.550   1.3388   0.00949   0.00486  -0.0874  0.3378  0.8144
   7.560   1.3401   0.00948   0.00486  -0.0875  0.3382  0.8146
   7.570   1.3403   0.00951   0.00488  -0.0873  0.3370  0.8147
   7.580   1.3413   0.00952   0.00489  -0.0873  0.3371  0.8149
   7.590   1.3423   0.00952   0.00489  -0.0873  0.3372  0.8150
   7.600   1.3432   0.00953   0.00490  -0.0873  0.3369  0.8152
   7.610   1.3442   0.00953   0.00491  -0.0873  0.3369  0.8153
   7.620   1.3449   0.00954   0.00492  -0.0872  0.3362  0.8155
   7.630   1.3455   0.00956   0.00493  -0.0871  0.3352  0.8157
   7.640   1.3469   0.00955   0.00493  -0.0872  0.3363  0.8159
   7.650   1.3476   0.00956   0.00494  -0.0871  0.3358  0.8160
   7.660   1.3487   0.00956   0.00494  -0.0871  0.3358  0.8161
   7.670   1.3494   0.00957   0.00495  -0.0870  0.3354  0.8163
   7.680   1.3495   0.00960   0.00497  -0.0869  0.3338  0.8164
   7.690   1.3511   0.00959   0.00497  -0.0870  0.3349  0.8167
   7.700   1.3520   0.00960   0.00497  -0.0869  0.3348  0.8167
   7.710   1.3528   0.00961   0.00498  -0.0869  0.3345  0.8169
   7.720   1.3536   0.00961   0.00499  -0.0868  0.3342  0.8171
   7.730   1.3545   0.00962   0.00500  -0.0868  0.3341  0.8172
   7.740   1.3544   0.00965   0.00502  -0.0866  0.3326  0.8175
   7.750   1.3561   0.00964   0.00501  -0.0867  0.3337  0.8176
   7.760   1.3561   0.00966   0.00503  -0.0865  0.3325  0.8177
   7.770   1.3565   0.00968   0.00505  -0.0864  0.3318  0.8179
   7.780   1.3582   0.00966   0.00504  -0.0865  0.3328  0.8181
   7.790   1.3578   0.00970   0.00506  -0.0862  0.3312  0.8183
   7.800   1.3590   0.00970   0.00506  -0.0863  0.3316  0.8184
   7.810   1.3591   0.00972   0.00508  -0.0861  0.3308  0.8186
   7.820   1.3609   0.00970   0.00507  -0.0862  0.3317  0.8187
   7.830   1.3616   0.00971   0.00508  -0.0861  0.3315  0.8189
   7.840   1.3607   0.00976   0.00511  -0.0858  0.3298  0.8190
   7.850   1.3618   0.00976   0.00512  -0.0858  0.3300  0.8192
   7.860   1.3628   0.00976   0.00512  -0.0858  0.3301  0.8194
   7.870   1.3646   0.00974   0.00511  -0.0859  0.3309  0.8194
   7.880   1.3643   0.00977   0.00513  -0.0857  0.3298  0.8197
   7.890   1.3647   0.00979   0.00515  -0.0855  0.3295  0.8199
   7.900   1.3641   0.00982   0.00517  -0.0852  0.3284  0.8200
   7.910   1.3658   0.00981   0.00517  -0.0853  0.3289  0.8201
   7.920   1.3673   0.00980   0.00516  -0.0854  0.3295  0.8203
   7.930   1.3678   0.00981   0.00517  -0.0853  0.3292  0.8204
   7.940   1.3684   0.00982   0.00518  -0.0852  0.3290  0.8206
   7.950   1.3694   0.00982   0.00519  -0.0852  0.3291  0.8208
   7.960   1.3678   0.00988   0.00522  -0.0847  0.3272  0.8209
   7.980   1.3710   0.00986   0.00522  -0.0849  0.3283  0.8211
   7.990   1.3713   0.00988   0.00523  -0.0848  0.3279  0.8213
