  
       XFOIL         Version 6.94
  
 Calculated polar for: 1080                                            
  
 1 1 Reynolds number fixed          Mach number fixed         
  
 xtrf =   1.000 (top)        1.000 (bottom)  
 Mach =   0.000     Re =     2.000 e 6     Ncrit =   9.000
  
  alpha     CL        CD       CDp       CM    Top_Xtr Bot_Xtr
 ------- -------- --------- --------- -------- ------- -------
   6.000   1.2908   0.00971   0.00464  -0.0872  0.3247  0.7435
   6.010   1.2917   0.00972   0.00464  -0.0872  0.3245  0.7436
   6.020   1.2926   0.00973   0.00465  -0.0872  0.3244  0.7436
   6.030   1.2935   0.00974   0.00466  -0.0871  0.3242  0.7437
   6.040   1.2944   0.00975   0.00467  -0.0871  0.3240  0.7438
   6.050   1.2954   0.00975   0.00468  -0.0871  0.3239  0.7438
   6.060   1.2963   0.00976   0.00468  -0.0871  0.3237  0.7439
   6.070   1.2972   0.00977   0.00469  -0.0870  0.3235  0.7440
   6.080   1.2981   0.00978   0.00470  -0.0870  0.3234  0.7440
   6.090   1.2990   0.00979   0.00471  -0.0870  0.3232  0.7441
   6.100   1.2999   0.00980   0.00472  -0.0870  0.3230  0.7441
   6.110   1.3008   0.00981   0.00473  -0.0869  0.3229  0.7442
   6.120   1.3017   0.00982   0.00473  -0.0869  0.3228  0.7443
   6.130   1.3026   0.00983   0.00474  -0.0869  0.3226  0.7443
   6.140   1.3035   0.00983   0.00475  -0.0869  0.3224  0.7444
   6.150   1.3046   0.00984   0.00475  -0.0869  0.3224  0.7444
   6.160   1.3056   0.00984   0.00476  -0.0869  0.3223  0.7445
   6.170   1.3066   0.00985   0.00476  -0.0869  0.3222  0.7446
   6.180   1.3077   0.00985   0.00477  -0.0869  0.3221  0.7446
   6.190   1.3087   0.00986   0.00477  -0.0868  0.3220  0.7447
   6.200   1.3097   0.00986   0.00478  -0.0868  0.3219  0.7447
   6.210   1.3107   0.00987   0.00478  -0.0868  0.3218  0.7448
   6.220   1.3117   0.00987   0.00479  -0.0868  0.3216  0.7449
   6.230   1.3127   0.00988   0.00480  -0.0868  0.3216  0.7449
   6.240   1.3137   0.00988   0.00480  -0.0868  0.3215  0.7450
   6.250   1.3147   0.00989   0.00481  -0.0868  0.3214  0.7450
   6.260   1.3157   0.00989   0.00481  -0.0868  0.3212  0.7451
   6.270   1.3167   0.00990   0.00482  -0.0868  0.3212  0.7452
   6.280   1.3177   0.00990   0.00482  -0.0868  0.3210  0.7452
   6.290   1.3187   0.00991   0.00483  -0.0868  0.3210  0.7453
   6.300   1.3197   0.00991   0.00483  -0.0868  0.3208  0.7453
   6.310   1.3207   0.00992   0.00484  -0.0868  0.3207  0.7454
   6.320   1.3217   0.00993   0.00485  -0.0867  0.3205  0.7455
   6.330   1.3227   0.00993   0.00485  -0.0867  0.3205  0.7455
   6.340   1.3236   0.00994   0.00486  -0.0867  0.3203  0.7456
   6.350   1.3246   0.00994   0.00486  -0.0867  0.3202  0.7457
   6.360   1.3256   0.00995   0.00487  -0.0867  0.3201  0.7457
   6.370   1.3266   0.00996   0.00488  -0.0867  0.3200  0.7458
   6.380   1.3275   0.00996   0.00488  -0.0867  0.3198  0.7458
   6.390   1.3285   0.00997   0.00489  -0.0867  0.3197  0.7459
   6.400   1.3295   0.00997   0.00489  -0.0867  0.3196  0.7460
   6.410   1.3305   0.00998   0.00490  -0.0866  0.3195  0.7460
   6.420   1.3314   0.00999   0.00491  -0.0866  0.3194  0.7461
   6.430   1.3324   0.00999   0.00491  -0.0866  0.3193  0.7462
   6.440   1.3333   0.01000   0.00492  -0.0866  0.3190  0.7462
   6.450   1.3343   0.01001   0.00493  -0.0866  0.3189  0.7463
   6.460   1.3352   0.01001   0.00493  -0.0866  0.3188  0.7464
   6.470   1.3362   0.01002   0.00494  -0.0865  0.3187  0.7464
   6.480   1.3371   0.01003   0.00495  -0.0865  0.3185  0.7465
   6.490   1.3381   0.01003   0.00495  -0.0865  0.3184  0.7465
   6.500   1.3390   0.01004   0.00496  -0.0865  0.3183  0.7466
   6.510   1.3399   0.01005   0.00497  -0.0865  0.3181  0.7467
   6.520   1.3409   0.01005   0.00497  -0.0865  0.3180  0.7467
   6.530   1.3418   0.01006   0.00498  -0.0864  0.3179  0.7468
   6.540   1.3428   0.01007   0.00499  -0.0864  0.3178  0.7469
   6.550   1.3437   0.01008   0.00499  -0.0864  0.3177  0.7469
   6.560   1.3446   0.01008   0.00500  -0.0864  0.3175  0.7470
   6.570   1.3456   0.01009   0.00501  -0.0864  0.3174  0.7471
   6.580   1.3465   0.01010   0.00502  -0.0863  0.3172  0.7471
   6.590   1.3474   0.01011   0.00502  -0.0863  0.3171  0.7472
   6.600   1.3482   0.01012   0.00503  -0.0863  0.3169  0.7473
   6.610   1.3491   0.01013   0.00504  -0.0863  0.3168  0.7473
   6.620   1.3500   0.01013   0.00505  -0.0862  0.3167  0.7474
   6.630   1.3510   0.01014   0.00505  -0.0862  0.3166  0.7475
   6.640   1.3518   0.01015   0.00506  -0.0862  0.3163  0.7475
   6.650   1.3528   0.01016   0.00507  -0.0862  0.3163  0.7476
   6.660   1.3536   0.01017   0.00508  -0.0861  0.3162  0.7477
   6.670   1.3545   0.01017   0.00508  -0.0861  0.3160  0.7477
   6.680   1.3554   0.01018   0.00509  -0.0861  0.3160  0.7478
   6.690   1.3564   0.01019   0.00510  -0.0861  0.3159  0.7479
   6.700   1.3572   0.01020   0.00511  -0.0860  0.3157  0.7479
   6.710   1.3580   0.01021   0.00512  -0.0860  0.3156  0.7480
   6.720   1.3588   0.01022   0.00512  -0.0859  0.3154  0.7481
   6.730   1.3597   0.01022   0.00513  -0.0859  0.3153  0.7481
   6.740   1.3606   0.01023   0.00514  -0.0859  0.3152  0.7482
   6.750   1.3613   0.01024   0.00515  -0.0858  0.3149  0.7483
   6.760   1.3622   0.01025   0.00516  -0.0858  0.3148  0.7483
   6.770   1.3631   0.01026   0.00516  -0.0858  0.3148  0.7484
   6.780   1.3637   0.01027   0.00517  -0.0857  0.3145  0.7485
   6.790   1.3647   0.01027   0.00518  -0.0857  0.3146  0.7486
   6.800   1.3654   0.01028   0.00519  -0.0856  0.3144  0.7486
   6.810   1.3661   0.01030   0.00520  -0.0856  0.3141  0.7487
   6.820   1.3669   0.01031   0.00521  -0.0855  0.3139  0.7488
   6.830   1.3678   0.01031   0.00521  -0.0855  0.3139  0.7488
   6.840   1.3685   0.01032   0.00522  -0.0854  0.3138  0.7489
   6.850   1.3693   0.01033   0.00523  -0.0854  0.3137  0.7490
   6.860   1.3701   0.01034   0.00524  -0.0853  0.3135  0.7490
   6.870   1.3707   0.01035   0.00524  -0.0853  0.3133  0.7491
   6.880   1.3715   0.01036   0.00525  -0.0852  0.3132  0.7492
   6.890   1.3722   0.01037   0.00526  -0.0852  0.3130  0.7492
   6.900   1.3731   0.01037   0.00527  -0.0851  0.3129  0.7493
   6.910   1.3738   0.01038   0.00528  -0.0851  0.3128  0.7494
   6.920   1.3745   0.01039   0.00528  -0.0850  0.3126  0.7494
   6.930   1.3752   0.01040   0.00529  -0.0849  0.3125  0.7495
   6.940   1.3760   0.01041   0.00530  -0.0849  0.3124  0.7496
   6.950   1.3769   0.01041   0.00531  -0.0849  0.3122  0.7496
   6.960   1.3778   0.01042   0.00531  -0.0848  0.3122  0.7497
   6.970   1.3787   0.01042   0.00532  -0.0848  0.3121  0.7498
   6.980   1.3796   0.01043   0.00532  -0.0848  0.3120  0.7498
   6.990   1.3805   0.01043   0.00533  -0.0848  0.3120  0.7499
   7.000   1.3814   0.01044   0.00533  -0.0847  0.3118  0.7500
   7.010   1.3823   0.01044   0.00534  -0.0847  0.3118  0.7500
   7.020   1.3832   0.01045   0.00534  -0.0847  0.3117  0.7501
   7.030   1.3841   0.01045   0.00535  -0.0847  0.3116  0.7501
   7.040   1.3850   0.01046   0.00535  -0.0846  0.3115  0.7502
   7.050   1.3858   0.01046   0.00536  -0.0846  0.3114  0.7503
   7.060   1.3867   0.01047   0.00536  -0.0846  0.3114  0.7503
   7.070   1.3876   0.01047   0.00537  -0.0845  0.3113  0.7504
   7.080   1.3885   0.01048   0.00537  -0.0845  0.3112  0.7505
   7.090   1.3893   0.01048   0.00538  -0.0845  0.3111  0.7505
   7.100   1.3902   0.01049   0.00538  -0.0844  0.3110  0.7506
   7.110   1.3911   0.01049   0.00539  -0.0844  0.3109  0.7506
   7.120   1.3919   0.01050   0.00540  -0.0844  0.3108  0.7507
   7.130   1.3928   0.01050   0.00540  -0.0843  0.3107  0.7508
