  
       XFOIL         Version 6.94
  
 Calculated polar for: 1080                                            
  
 1 1 Reynolds number fixed          Mach number fixed         
  
 xtrf =   1.000 (top)        1.000 (bottom)  
 Mach =   0.000     Re =     2.000 e 6     Ncrit =   9.000
  
  alpha     CL        CD       CDp       CM    Top_Xtr Bot_Xtr
 ------- -------- --------- --------- -------- ------- -------
   6.000   1.3764   0.00886   0.00416  -0.1084  0.4291  0.7396
   6.010   1.3773   0.00886   0.00416  -0.1084  0.4290  0.7396
   6.020   1.3781   0.00887   0.00417  -0.1084  0.4289  0.7397
   6.030   1.3791   0.00887   0.00417  -0.1083  0.4288  0.7397
   6.040   1.3800   0.00888   0.00418  -0.1083  0.4287  0.7398
   6.050   1.3810   0.00888   0.00418  -0.1083  0.4287  0.7399
   6.060   1.3818   0.00889   0.00419  -0.1083  0.4285  0.7399
   6.070   1.3827   0.00889   0.00419  -0.1083  0.4284  0.7400
   6.080   1.3837   0.00889   0.00420  -0.1083  0.4284  0.7400
   6.090   1.3845   0.00890   0.00420  -0.1082  0.4282  0.7401
   6.100   1.3854   0.00891   0.00421  -0.1082  0.4281  0.7401
   6.110   1.3864   0.00891   0.00421  -0.1082  0.4282  0.7402
   6.120   1.3872   0.00892   0.00422  -0.1082  0.4279  0.7402
   6.130   1.3881   0.00892   0.00423  -0.1082  0.4278  0.7403
   6.140   1.3888   0.00893   0.00423  -0.1081  0.4275  0.7403
   6.150   1.3899   0.00893   0.00424  -0.1081  0.4277  0.7404
   6.160   1.3908   0.00894   0.00424  -0.1081  0.4275  0.7404
   6.170   1.3916   0.00894   0.00425  -0.1081  0.4275  0.7405
   6.180   1.3925   0.00895   0.00425  -0.1081  0.4274  0.7405
   6.190   1.3934   0.00895   0.00426  -0.1081  0.4273  0.7406
   6.200   1.3943   0.00896   0.00426  -0.1080  0.4272  0.7407
   6.210   1.3945   0.00898   0.00427  -0.1079  0.4264  0.7407
   6.220   1.3959   0.00897   0.00428  -0.1080  0.4269  0.7408
   6.230   1.3967   0.00898   0.00428  -0.1079  0.4267  0.7408
   6.240   1.3977   0.00898   0.00429  -0.1079  0.4268  0.7408
   6.250   1.3986   0.00899   0.00429  -0.1079  0.4267  0.7409
   6.260   1.3994   0.00900   0.00430  -0.1079  0.4266  0.7410
   6.270   1.4002   0.00900   0.00430  -0.1078  0.4264  0.7410
   6.280   1.4011   0.00901   0.00431  -0.1078  0.4263  0.7411
   6.290   1.4020   0.00901   0.00432  -0.1078  0.4263  0.7411
   6.300   1.4028   0.00902   0.00432  -0.1078  0.4261  0.7412
   6.310   1.4030   0.00904   0.00434  -0.1076  0.4254  0.7413
   6.320   1.4045   0.00904   0.00434  -0.1077  0.4259  0.7413
   6.330   1.4052   0.00905   0.00434  -0.1077  0.4257  0.7413
   6.340   1.4061   0.00905   0.00435  -0.1076  0.4257  0.7414
   6.350   1.4070   0.00906   0.00436  -0.1076  0.4256  0.7415
   6.360   1.4082   0.00905   0.00434  -0.1077  0.4227  0.7415
   6.370   1.4087   0.00907   0.00437  -0.1076  0.4254  0.7416
   6.380   1.4095   0.00908   0.00437  -0.1075  0.4253  0.7416
   6.390   1.4103   0.00908   0.00438  -0.1075  0.4252  0.7417
   6.400   1.4111   0.00909   0.00439  -0.1075  0.4250  0.7417
   6.410   1.4119   0.00910   0.00440  -0.1074  0.4249  0.7418
   6.420   1.4127   0.00911   0.00440  -0.1074  0.4248  0.7418
   6.430   1.4136   0.00911   0.00441  -0.1074  0.4247  0.7419
   6.440   1.4147   0.00911   0.00441  -0.1074  0.4246  0.7419
   6.450   1.4157   0.00912   0.00441  -0.1074  0.4246  0.7420
   6.460   1.4168   0.00912   0.00442  -0.1074  0.4245  0.7420
   6.470   1.4178   0.00912   0.00442  -0.1074  0.4245  0.7421
   6.480   1.4188   0.00912   0.00442  -0.1074  0.4243  0.7421
   6.490   1.4202   0.00912   0.00442  -0.1075  0.4238  0.7422
   6.500   1.4208   0.00913   0.00443  -0.1074  0.4242  0.7422
   6.510   1.4219   0.00913   0.00444  -0.1075  0.4241  0.7423
   6.520   1.4231   0.00913   0.00444  -0.1075  0.4238  0.7423
   6.530   1.4240   0.00914   0.00444  -0.1075  0.4237  0.7424
   6.540   1.4248   0.00914   0.00445  -0.1074  0.4240  0.7424
   6.550   1.4261   0.00914   0.00445  -0.1075  0.4233  0.7425
   6.560   1.4268   0.00915   0.00446  -0.1075  0.4238  0.7425
   6.570   1.4282   0.00914   0.00445  -0.1075  0.4228  0.7426
   6.580   1.4290   0.00915   0.00445  -0.1075  0.4199  0.7426
   6.590   1.4298   0.00916   0.00447  -0.1075  0.4235  0.7427
   6.600   1.4309   0.00916   0.00447  -0.1075  0.4233  0.7427
   6.610   1.4318   0.00917   0.00448  -0.1075  0.4234  0.7428
   6.620   1.4331   0.00916   0.00448  -0.1075  0.4226  0.7428
   6.630   1.4338   0.00917   0.00449  -0.1075  0.4233  0.7429
   6.640   1.4349   0.00917   0.00449  -0.1075  0.4229  0.7429
   6.650   1.4359   0.00918   0.00449  -0.1075  0.4224  0.7430
   6.660   1.4367   0.00918   0.00450  -0.1075  0.4229  0.7430
   6.670   1.4378   0.00919   0.00451  -0.1075  0.4228  0.7431
   6.680   1.4355   0.00927   0.00453  -0.1069  0.4152  0.7432
   6.690   1.4390   0.00921   0.00451  -0.1074  0.4186  0.7432
   6.700   1.4407   0.00920   0.00451  -0.1075  0.4207  0.7432
   6.710   1.4417   0.00920   0.00452  -0.1075  0.4221  0.7433
   6.720   1.4426   0.00921   0.00453  -0.1075  0.4223  0.7433
   6.730   1.4434   0.00921   0.00453  -0.1074  0.4200  0.7434
   6.740   1.4445   0.00921   0.00454  -0.1075  0.4219  0.7434
   6.750   1.4452   0.00922   0.00454  -0.1074  0.4198  0.7435
   6.760   1.4465   0.00922   0.00455  -0.1075  0.4219  0.7435
   6.770   1.4474   0.00923   0.00455  -0.1075  0.4215  0.7436
   6.780   1.4483   0.00923   0.00456  -0.1074  0.4214  0.7436
   6.790   1.4490   0.00924   0.00456  -0.1074  0.4198  0.7437
   6.800   1.4502   0.00924   0.00457  -0.1074  0.4207  0.7437
   6.810   1.4501   0.00927   0.00457  -0.1072  0.4180  0.7438
   6.820   1.4515   0.00926   0.00458  -0.1073  0.4188  0.7439
   6.830   1.4531   0.00925   0.00458  -0.1074  0.4208  0.7439
   6.840   1.4540   0.00926   0.00459  -0.1074  0.4208  0.7440
   6.850   1.4547   0.00927   0.00459  -0.1074  0.4197  0.7440
   6.860   1.4558   0.00927   0.00460  -0.1074  0.4202  0.7440
   6.870   1.4564   0.00928   0.00460  -0.1073  0.4192  0.7441
   6.880   1.4577   0.00928   0.00461  -0.1074  0.4201  0.7442
   6.890   1.4584   0.00929   0.00461  -0.1073  0.4195  0.7442
   6.900   1.4588   0.00931   0.00462  -0.1072  0.4182  0.7443
   6.910   1.4577   0.00936   0.00465  -0.1068  0.4157  0.7443
   6.920   1.4607   0.00932   0.00463  -0.1072  0.4182  0.7444
   6.930   1.4620   0.00931   0.00464  -0.1073  0.4189  0.7444
   6.940   1.4629   0.00932   0.00465  -0.1073  0.4190  0.7445
   6.950   1.4626   0.00935   0.00467  -0.1070  0.4170  0.7445
   6.960   1.4646   0.00933   0.00466  -0.1072  0.4186  0.7446
   6.970   1.4657   0.00933   0.00467  -0.1072  0.4189  0.7446
   6.980   1.4655   0.00936   0.00468  -0.1070  0.4172  0.7447
   6.990   1.4665   0.00936   0.00469  -0.1070  0.4172  0.7447
   7.000   1.4659   0.00941   0.00471  -0.1067  0.4156  0.7448
   7.010   1.4686   0.00937   0.00470  -0.1070  0.4175  0.7448
   7.020   1.4675   0.00942   0.00473  -0.1067  0.4154  0.7449
   7.030   1.4692   0.00941   0.00472  -0.1068  0.4161  0.7450
   7.040   1.4711   0.00939   0.00472  -0.1070  0.4172  0.7450
   7.050   1.4705   0.00943   0.00474  -0.1067  0.4156  0.7451
   7.060   1.4714   0.00944   0.00475  -0.1066  0.4155  0.7451
   7.070   1.4722   0.00944   0.00475  -0.1066  0.4154  0.7452
   7.080   1.4738   0.00943   0.00475  -0.1067  0.4161  0.7452
   7.090   1.4750   0.00943   0.00476  -0.1068  0.4164  0.7453
   7.100   1.4760   0.00943   0.00476  -0.1068  0.4165  0.7453
   7.110   1.4758   0.00947   0.00478  -0.1066  0.4154  0.7454
   7.120   1.4771   0.00946   0.00478  -0.1066  0.4158  0.7454
   7.130   1.4782   0.00946   0.00479  -0.1066  0.4160  0.7455
   7.140   1.4784   0.00948   0.00480  -0.1065  0.4153  0.7455
   7.150   1.4787   0.00950   0.00481  -0.1064  0.4127  0.7456
   7.160   1.4797   0.00951   0.00481  -0.1064  0.4122  0.7457
   7.170   1.4802   0.00952   0.00483  -0.1063  0.4139  0.7457
   7.180   1.4814   0.00952   0.00483  -0.1063  0.4129  0.7458
   7.190   1.4803   0.00958   0.00486  -0.1060  0.4072  0.7458
   7.200   1.4774   0.00968   0.00492  -0.1053  0.4010  0.7459
   7.210   1.4843   0.00953   0.00485  -0.1063  0.4122  0.7459
   7.220   1.4788   0.00970   0.00494  -0.1052  0.3999  0.7460
   7.230   1.4807   0.00968   0.00493  -0.1053  0.4039  0.7461
   7.240   1.4718   0.00996   0.00511  -0.1036  0.3868  0.7462
   7.250   1.4878   0.00956   0.00487  -0.1063  0.4113  0.7461
   7.260   1.4867   0.00961   0.00490  -0.1059  0.4070  0.7462
   7.270   1.4760   0.00994   0.00510  -0.1038  0.3888  0.7464
   7.280   1.4739   0.01002   0.00516  -0.1032  0.3851  0.7464
   7.290   1.4659   0.01028   0.00534  -0.1016  0.3745  0.7466
   7.300   1.4790   0.00994   0.00511  -0.1038  0.3892  0.7465
   7.310   1.4805   0.00993   0.00511  -0.1039  0.3903  0.7466
   7.320   1.4897   0.00971   0.00497  -0.1054  0.4046  0.7465
   7.330   1.4925   0.00966   0.00495  -0.1057  0.4063  0.7466
   7.340   1.4676   0.01038   0.00543  -0.1011  0.3724  0.7469
   7.350   1.4828   0.00999   0.00516  -0.1036  0.3880  0.7468
   7.360   1.4762   0.01020   0.00531  -0.1023  0.3789  0.7469
   7.370   1.4883   0.00990   0.00510  -0.1042  0.3944  0.7468
   7.380   1.4745   0.01031   0.00539  -0.1016  0.3750  0.7470
   7.390   1.4791   0.01022   0.00532  -0.1023  0.3792  0.7470
   7.400   1.4872   0.01002   0.00519  -0.1035  0.3878  0.7470
   7.410   1.4936   0.00988   0.00510  -0.1045  0.3958  0.7470
   7.420   1.4829   0.01020   0.00532  -0.1024  0.3810  0.7472
   7.430   1.4742   0.01047   0.00552  -0.1007  0.3701  0.7473
   7.440   1.4918   0.01002   0.00520  -0.1037  0.3893  0.7472
   7.450   1.4741   0.01054   0.00557  -0.1003  0.3676  0.7474
   7.460   1.4637   0.01086   0.00582  -0.0984  0.3564  0.7476
   7.470   1.4735   0.01062   0.00564  -0.0999  0.3651  0.7476
   7.480   1.5006   0.00990   0.00513  -0.1045  0.3964  0.7473
   7.490   1.4949   0.01008   0.00525  -0.1034  0.3873  0.7474
   7.500   1.4734   0.01071   0.00571  -0.0994  0.3630  0.7477
   7.510   1.4853   0.01041   0.00549  -0.1013  0.3743  0.7477
   7.520   1.4752   0.01073   0.00573  -0.0994  0.3630  0.7478
   7.530   1.4814   0.01058   0.00562  -0.1003  0.3678  0.7478
   7.540   1.4611   0.01119   0.00609  -0.0966  0.3481  0.7480
   7.550   1.4718   0.01092   0.00588  -0.0983  0.3568  0.7480
   7.560   1.4891   0.01046   0.00554  -0.1011  0.3738  0.7479
   7.570   1.4756   0.01087   0.00585  -0.0986  0.3591  0.7481
   7.580   1.4652   0.01120   0.00611  -0.0966  0.3488  0.7482
   7.590   1.4879   0.01058   0.00564  -0.1004  0.3694  0.7481
   7.600   1.4829   0.01076   0.00577  -0.0994  0.3636  0.7482
   7.610   1.4898   0.01059   0.00565  -0.1004  0.3695  0.7482
   7.620   1.4716   0.01114   0.00607  -0.0971  0.3520  0.7484
   7.630   1.4716   0.01117   0.00610  -0.0969  0.3512  0.7484
   7.640   1.4859   0.01079   0.00581  -0.0992  0.3633  0.7483
   7.650   1.4391   0.01219   0.00693  -0.0912  0.3228  0.7488
   7.660   1.4832   0.01093   0.00592  -0.0984  0.3589  0.7485
   7.670   1.4732   0.01125   0.00617  -0.0965  0.3492  0.7486
   7.680   1.4679   0.01144   0.00632  -0.0955  0.3438  0.7487
   7.690   1.4624   0.01163   0.00648  -0.0944  0.3388  0.7488
   7.700   1.4634   0.01163   0.00648  -0.0944  0.3389  0.7488
   7.720   1.4793   0.01124   0.00617  -0.0968  0.3514  0.7488
   7.730   1.4783   0.01129   0.00622  -0.0964  0.3493  0.7488
   7.760   1.4541   0.01210   0.00689  -0.0919  0.3277  0.7494
   7.770   1.4635   0.01185   0.00668  -0.0933  0.3342  0.7494
   7.780   1.4735   0.01159   0.00647  -0.0948  0.3420  0.7493
   7.790   1.4719   0.01167   0.00654  -0.0944  0.3401  0.7494
   7.800   1.4589   0.01208   0.00688  -0.0921  0.3293  0.7497
   7.810   1.4541   0.01226   0.00704  -0.0911  0.3244  0.7498
   7.820   1.4591   0.01214   0.00694  -0.0918  0.3279  0.7498
   7.830   1.4583   0.01220   0.00699  -0.0915  0.3264  0.7499
   7.840   1.4790   0.01162   0.00651  -0.0948  0.3424  0.7497
   7.850   1.4448   0.01268   0.00740  -0.0890  0.3153  0.7502
   7.870   1.4561   0.01239   0.00717  -0.0905  0.3227  0.7502
   7.880   1.4705   0.01199   0.00684  -0.0927  0.3329  0.7501
   7.890   1.4376   0.01304   0.00773  -0.0873  0.3090  0.7506
   7.900   1.4608   0.01235   0.00714  -0.0908  0.3242  0.7504
   7.910   1.4744   0.01197   0.00683  -0.0929  0.3339  0.7503
   7.920   1.4592   0.01247   0.00725  -0.0903  0.3222  0.7505
   7.930   1.4653   0.01231   0.00712  -0.0911  0.3258  0.7506
   7.940   1.4467   0.01292   0.00764  -0.0880  0.3122  0.7508
   7.950   1.4519   0.01279   0.00753  -0.0887  0.3151  0.7508
   7.960   1.4453   0.01304   0.00775  -0.0875  0.3107  0.7510
   7.970   1.4610   0.01258   0.00736  -0.0898  0.3210  0.7509
   7.980   1.4449   0.01313   0.00783  -0.0871  0.3094  0.7512
   7.990   1.4410   0.01329   0.00797  -0.0864  0.3056  0.7513
   8.000   1.4575   0.01279   0.00755  -0.0888  0.3164  0.7512
   8.010   1.4390   0.01342   0.00810  -0.0858  0.3033  0.7514
   8.020   1.4305   0.01375   0.00839  -0.0843  0.2977  0.7516
   8.030   1.4455   0.01328   0.00798  -0.0865  0.3068  0.7515
   8.040   1.4638   0.01273   0.00750  -0.0892  0.3193  0.7513
   8.050   1.4476   0.01329   0.00799  -0.0865  0.3073  0.7516
   8.060   1.4253   0.01408   0.00869  -0.0830  0.2921  0.7519
   8.070   1.4374   0.01370   0.00836  -0.0847  0.3001  0.7519
   8.080   1.4494   0.01333   0.00804  -0.0864  0.3071  0.7518
   8.090   1.4345   0.01388   0.00852  -0.0840  0.2969  0.7520
   8.100   1.4445   0.01357   0.00825  -0.0853  0.3026  0.7520
   8.110   1.4488   0.01347   0.00816  -0.0859  0.3049  0.7520
   8.120   1.4395   0.01382   0.00848  -0.0843  0.2992  0.7522
   8.130   1.4181   0.01462   0.00919  -0.0810  0.2845  0.7525
   8.140   1.4318   0.01416   0.00879  -0.0829  0.2926  0.7524
   8.150   1.4450   0.01374   0.00842  -0.0847  0.3010  0.7523
   8.160   1.4350   0.01413   0.00876  -0.0831  0.2937  0.7525
   8.170   1.4381   0.01406   0.00870  -0.0834  0.2952  0.7525
   8.180   1.4429   0.01393   0.00859  -0.0840  0.2985  0.7526
   8.190   1.4364   0.01420   0.00883  -0.0829  0.2933  0.7527
   8.200   1.4181   0.01491   0.00948  -0.0801  0.2818  0.7530
   8.210   1.4453   0.01396   0.00863  -0.0839  0.2987  0.7527
   8.220   1.4396   0.01420   0.00885  -0.0830  0.2939  0.7529
   8.230   1.4340   0.01444   0.00907  -0.0820  0.2905  0.7530
   8.240   1.4491   0.01395   0.00862  -0.0841  0.3000  0.7529
   8.250   1.4269   0.01479   0.00938  -0.0807  0.2849  0.7532
   8.260   1.4123   0.01539   0.00993  -0.0786  0.2761  0.7535
   8.270   1.4381   0.01446   0.00909  -0.0821  0.2911  0.7532
   8.280   1.4352   0.01460   0.00922  -0.0815  0.2896  0.7533
   8.290   1.4359   0.01462   0.00924  -0.0815  0.2896  0.7534
   8.300   1.4343   0.01472   0.00933  -0.0811  0.2879  0.7535
   8.310   1.4374   0.01465   0.00927  -0.0814  0.2896  0.7535
   8.320   1.4269   0.01508   0.00967  -0.0798  0.2821  0.7537
   8.330   1.4173   0.01550   0.01005  -0.0784  0.2764  0.7539
   8.340   1.4278   0.01514   0.00972  -0.0797  0.2819  0.7538
   8.350   1.4241   0.01532   0.00990  -0.0791  0.2799  0.7540
   8.360   1.4190   0.01557   0.01012  -0.0783  0.2763  0.7541
   8.370   1.4271   0.01529   0.00987  -0.0792  0.2807  0.7540
   8.380   1.4242   0.01545   0.01002  -0.0787  0.2792  0.7542
   8.390   1.4266   0.01540   0.00998  -0.0789  0.2799  0.7543
   8.400   1.4245   0.01553   0.01010  -0.0785  0.2783  0.7543
   8.410   1.4289   0.01540   0.00998  -0.0790  0.2803  0.7543
   8.420   1.4242   0.01563   0.01020  -0.0782  0.2772  0.7544
   8.430   1.4065   0.01641   0.01092  -0.0758  0.2669  0.7547
   8.440   1.4251   0.01568   0.01025  -0.0781  0.2769  0.7546
   8.450   1.4154   0.01613   0.01066  -0.0767  0.2709  0.7547
   8.460   1.4206   0.01596   0.01051  -0.0773  0.2732  0.7548
   8.470   1.4131   0.01632   0.01085  -0.0762  0.2694  0.7549
   8.480   1.4047   0.01673   0.01123  -0.0749  0.2637  0.7551
   8.490   1.4209   0.01608   0.01063  -0.0769  0.2723  0.7550
   8.500   1.4239   0.01601   0.01057  -0.0772  0.2736  0.7550
   8.510   1.4249   0.01601   0.01057  -0.0772  0.2738  0.7551
   8.520   1.4154   0.01646   0.01099  -0.0759  0.2691  0.7553
   8.530   1.4182   0.01639   0.01093  -0.0761  0.2699  0.7553
   8.540   1.3941   0.01752   0.01198  -0.0730  0.2566  0.7557
   8.550   1.4288   0.01603   0.01060  -0.0773  0.2747  0.7553
   8.560   1.3797   0.01831   0.01274  -0.0710  0.2490  0.7560
   8.570   1.3957   0.01760   0.01207  -0.0728  0.2565  0.7558
   8.580   1.4131   0.01686   0.01138  -0.0749  0.2652  0.7557
   8.590   1.4175   0.01671   0.01124  -0.0754  0.2677  0.7558
   8.600   1.4067   0.01725   0.01175  -0.0739  0.2612  0.7560
   8.610   1.3859   0.01829   0.01273  -0.0713  0.2503  0.7562
   8.620   1.4179   0.01685   0.01138  -0.0751  0.2667  0.7560
   8.630   1.4041   0.01752   0.01201  -0.0732  0.2594  0.7562
   8.640   1.4246   0.01665   0.01120  -0.0757  0.2698  0.7560
   8.650   1.4052   0.01758   0.01207  -0.0732  0.2593  0.7563
   8.660   1.4150   0.01718   0.01170  -0.0743  0.2634  0.7563
   8.670   1.4097   0.01747   0.01197  -0.0735  0.2607  0.7564
   8.680   1.4179   0.01714   0.01167  -0.0744  0.2645  0.7564
   8.690   1.4063   0.01773   0.01223  -0.0729  0.2589  0.7566
   8.700   1.4056   0.01782   0.01232  -0.0727  0.2580  0.7567
   8.710   1.3884   0.01872   0.01316  -0.0706  0.2492  0.7569
   8.720   1.3923   0.01858   0.01304  -0.0709  0.2504  0.7569
   8.730   1.4023   0.01814   0.01262  -0.0720  0.2551  0.7569
   8.740   1.4001   0.01830   0.01278  -0.0716  0.2535  0.7570
   8.750   1.3900   0.01886   0.01331  -0.0704  0.2490  0.7572
   8.760   1.4101   0.01793   0.01243  -0.0726  0.2588  0.7570
   8.770   1.3776   0.01963   0.01405  -0.0688  0.2417  0.7574
   8.780   1.3902   0.01903   0.01348  -0.0701  0.2482  0.7574
   8.790   1.3857   0.01932   0.01376  -0.0695  0.2452  0.7575
   8.800   1.3962   0.01883   0.01330  -0.0706  0.2503  0.7575
   8.810   1.3706   0.02025   0.01465  -0.0677  0.2381  0.7578
   8.820   1.3994   0.01879   0.01326  -0.0708  0.2511  0.7576
   8.830   1.3891   0.01938   0.01383  -0.0695  0.2460  0.7577
   8.840   1.3770   0.02008   0.01450  -0.0681  0.2401  0.7579
   8.850   1.4000   0.01893   0.01341  -0.0705  0.2507  0.7577
   8.860   1.4084   0.01856   0.01306  -0.0714  0.2544  0.7577
   8.870   1.3744   0.02041   0.01482  -0.0676  0.2384  0.7581
   8.880   1.3661   0.02094   0.01534  -0.0666  0.2338  0.7582
   8.890   1.3647   0.02109   0.01548  -0.0664  0.2329  0.7583
   8.900   1.3507   0.02197   0.01634  -0.0649  0.2268  0.7585
   8.910   1.3992   0.01932   0.01379  -0.0699  0.2493  0.7582
   8.930   1.3842   0.02024   0.01468  -0.0681  0.2411  0.7584
   8.940   1.3874   0.02013   0.01457  -0.0683  0.2423  0.7585
   8.950   1.3722   0.02104   0.01545  -0.0666  0.2352  0.7586
   8.960   1.3544   0.02215   0.01653  -0.0648  0.2273  0.7588
   8.970   1.3947   0.01992   0.01438  -0.0688  0.2451  0.7586
   8.980   1.3525   0.02241   0.01678  -0.0645  0.2260  0.7590
   8.990   1.3661   0.02166   0.01606  -0.0657  0.2315  0.7589
   9.000   1.3551   0.02239   0.01676  -0.0646  0.2268  0.7591
   9.010   1.3840   0.02076   0.01519  -0.0674  0.2396  0.7589
   9.020   1.3673   0.02179   0.01619  -0.0656  0.2315  0.7591
   9.030   1.3653   0.02197   0.01637  -0.0653  0.2305  0.7592
   9.040   1.3672   0.02193   0.01633  -0.0654  0.2311  0.7592
   9.050   1.3601   0.02242   0.01681  -0.0647  0.2282  0.7593
   9.060   1.3339   0.02415   0.01850  -0.0622  0.2165  0.7595
   9.070   1.3672   0.02213   0.01653  -0.0652  0.2307  0.7593
