  
       XFOIL         Version 6.94
  
 Calculated polar for: 1080                                            
  
 1 1 Reynolds number fixed          Mach number fixed         
  
 xtrf =   1.000 (top)        1.000 (bottom)  
 Mach =   0.000     Re =     2.000 e 6     Ncrit =   9.000
  
  alpha     CL        CD       CDp       CM    Top_Xtr Bot_Xtr
 ------- -------- --------- --------- -------- ------- -------
   6.000   1.2387   0.00654   0.00289  -0.1250  0.5770  0.7643
   6.010   1.2396   0.00654   0.00289  -0.1250  0.5769  0.7685
   6.020   1.2403   0.00654   0.00290  -0.1249  0.5767  0.7706
   6.030   1.2412   0.00655   0.00291  -0.1248  0.5766  0.7732
   6.040   1.2417   0.00655   0.00291  -0.1247  0.5763  0.7742
   6.050   1.2426   0.00655   0.00292  -0.1247  0.5762  0.7761
   6.060   1.2432   0.00656   0.00292  -0.1246  0.5761  0.7771
   6.070   1.2442   0.00656   0.00293  -0.1246  0.5760  0.7785
   6.080   1.2449   0.00656   0.00293  -0.1245  0.5759  0.7798
   6.090   1.2459   0.00656   0.00294  -0.1245  0.5758  0.7812
   6.100   1.2469   0.00656   0.00294  -0.1245  0.5756  0.7821
   6.110   1.2479   0.00657   0.00294  -0.1245  0.5755  0.7830
   6.120   1.2489   0.00657   0.00295  -0.1245  0.5753  0.7838
   6.130   1.2500   0.00657   0.00295  -0.1245  0.5752  0.7848
   6.140   1.2509   0.00657   0.00296  -0.1245  0.5751  0.7857
   6.150   1.2519   0.00657   0.00296  -0.1245  0.5749  0.7863
   6.160   1.2529   0.00657   0.00297  -0.1244  0.5748  0.7873
   6.170   1.2539   0.00657   0.00297  -0.1244  0.5746  0.7881
   6.180   1.2549   0.00657   0.00297  -0.1244  0.5745  0.7887
   6.190   1.2558   0.00657   0.00298  -0.1244  0.5743  0.7896
   6.200   1.2568   0.00657   0.00298  -0.1244  0.5742  0.7904
   6.210   1.2578   0.00658   0.00299  -0.1244  0.5742  0.7912
   6.220   1.2588   0.00658   0.00299  -0.1244  0.5741  0.7919
   6.230   1.2598   0.00658   0.00299  -0.1243  0.5739  0.7926
   6.240   1.2607   0.00658   0.00300  -0.1243  0.5737  0.7931
   6.250   1.2617   0.00658   0.00300  -0.1243  0.5735  0.7938
   6.260   1.2627   0.00659   0.00300  -0.1243  0.5734  0.7943
   6.270   1.2636   0.00659   0.00301  -0.1243  0.5733  0.7949
   6.280   1.2646   0.00659   0.00301  -0.1243  0.5732  0.7953
   6.290   1.2655   0.00659   0.00301  -0.1242  0.5730  0.7958
   6.300   1.2664   0.00659   0.00302  -0.1242  0.5728  0.7963
   6.310   1.2673   0.00659   0.00302  -0.1242  0.5726  0.7966
   6.320   1.2682   0.00660   0.00303  -0.1241  0.5725  0.7972
   6.330   1.2691   0.00660   0.00303  -0.1241  0.5724  0.7977
   6.340   1.2699   0.00660   0.00303  -0.1241  0.5721  0.7982
   6.350   1.2710   0.00660   0.00304  -0.1241  0.5722  0.7985
   6.360   1.2719   0.00660   0.00304  -0.1240  0.5720  0.7991
   6.370   1.2727   0.00661   0.00305  -0.1240  0.5717  0.7994
   6.380   1.2736   0.00661   0.00305  -0.1240  0.5716  0.8000
   6.390   1.2744   0.00661   0.00305  -0.1239  0.5714  0.8003
   6.400   1.2753   0.00661   0.00306  -0.1239  0.5712  0.8009
   6.410   1.2762   0.00662   0.00306  -0.1238  0.5711  0.8012
   6.420   1.2769   0.00662   0.00307  -0.1238  0.5707  0.8018
   6.430   1.2778   0.00662   0.00307  -0.1238  0.5707  0.8021
   6.440   1.2788   0.00663   0.00307  -0.1237  0.5706  0.8025
   6.450   1.2796   0.00663   0.00308  -0.1237  0.5705  0.8029
   6.460   1.2804   0.00663   0.00308  -0.1236  0.5702  0.8033
   6.470   1.2813   0.00664   0.00308  -0.1236  0.5701  0.8037
   6.480   1.2822   0.00664   0.00309  -0.1236  0.5699  0.8041
   6.490   1.2829   0.00664   0.00309  -0.1235  0.5697  0.8045
   6.500   1.2838   0.00665   0.00309  -0.1235  0.5696  0.8048
   6.510   1.2846   0.00665   0.00310  -0.1234  0.5694  0.8051
   6.520   1.2854   0.00666   0.00310  -0.1234  0.5693  0.8054
   6.530   1.2862   0.00666   0.00311  -0.1233  0.5691  0.8057
   6.540   1.2870   0.00666   0.00311  -0.1233  0.5689  0.8060
   6.550   1.2878   0.00667   0.00311  -0.1232  0.5687  0.8063
   6.560   1.2885   0.00667   0.00312  -0.1232  0.5685  0.8066
   6.570   1.2894   0.00668   0.00312  -0.1231  0.5685  0.8069
   6.580   1.2901   0.00668   0.00313  -0.1231  0.5683  0.8072
   6.590   1.2909   0.00668   0.00313  -0.1230  0.5681  0.8075
   6.600   1.2915   0.00669   0.00314  -0.1229  0.5679  0.8077
   6.610   1.2921   0.00669   0.00315  -0.1228  0.5676  0.8080
   6.620   1.2929   0.00670   0.00315  -0.1228  0.5675  0.8083
   6.630   1.2939   0.00670   0.00316  -0.1228  0.5675  0.8086
   6.640   1.2945   0.00671   0.00316  -0.1227  0.5672  0.8089
   6.650   1.2955   0.00671   0.00317  -0.1227  0.5673  0.8092
   6.660   1.2956   0.00672   0.00317  -0.1225  0.5668  0.8095
   6.670   1.2969   0.00672   0.00318  -0.1225  0.5669  0.8098
   6.680   1.2975   0.00673   0.00318  -0.1224  0.5667  0.8101
   6.690   1.2980   0.00674   0.00319  -0.1223  0.5664  0.8104
   6.700   1.2988   0.00674   0.00320  -0.1223  0.5663  0.8107
   6.710   1.2996   0.00675   0.00320  -0.1222  0.5662  0.8110
   6.720   1.3003   0.00675   0.00321  -0.1221  0.5661  0.8113
   6.730   1.3009   0.00676   0.00321  -0.1220  0.5656  0.8116
   6.740   1.3019   0.00676   0.00322  -0.1220  0.5657  0.8119
   6.750   1.3029   0.00677   0.00322  -0.1220  0.5655  0.8121
   6.760   1.3039   0.00677   0.00323  -0.1220  0.5654  0.8124
   6.770   1.3049   0.00677   0.00323  -0.1220  0.5652  0.8127
   6.780   1.3059   0.00677   0.00323  -0.1220  0.5651  0.8129
   6.790   1.3068   0.00678   0.00324  -0.1220  0.5650  0.8133
   6.800   1.3078   0.00678   0.00324  -0.1220  0.5647  0.8135
   6.810   1.3088   0.00678   0.00325  -0.1220  0.5645  0.8138
   6.820   1.3098   0.00678   0.00325  -0.1220  0.5644  0.8140
   6.830   1.3107   0.00679   0.00326  -0.1219  0.5642  0.8143
   6.840   1.3118   0.00679   0.00326  -0.1219  0.5641  0.8146
   6.850   1.3127   0.00679   0.00326  -0.1219  0.5639  0.8147
   6.860   1.3136   0.00680   0.00327  -0.1219  0.5637  0.8149
   6.870   1.3145   0.00680   0.00327  -0.1219  0.5634  0.8152
   6.880   1.3155   0.00681   0.00328  -0.1219  0.5635  0.8155
   6.890   1.3163   0.00681   0.00328  -0.1218  0.5630  0.8157
   6.900   1.3172   0.00681   0.00329  -0.1218  0.5627  0.8159
   6.910   1.3183   0.00682   0.00329  -0.1218  0.5629  0.8161
   6.920   1.3191   0.00682   0.00330  -0.1217  0.5626  0.8164
   6.930   1.3199   0.00683   0.00330  -0.1217  0.5623  0.8165
   6.940   1.3208   0.00683   0.00331  -0.1217  0.5621  0.8168
   6.950   1.3217   0.00683   0.00331  -0.1216  0.5620  0.8170
   6.960   1.3226   0.00684   0.00332  -0.1216  0.5618  0.8172
   6.970   1.3234   0.00684   0.00332  -0.1215  0.5615  0.8173
   6.980   1.3242   0.00685   0.00333  -0.1215  0.5613  0.8176
   6.990   1.3251   0.00685   0.00333  -0.1215  0.5612  0.8178
   7.000   1.3259   0.00685   0.00334  -0.1214  0.5611  0.8180
   7.010   1.3266   0.00686   0.00334  -0.1214  0.5608  0.8182
   7.020   1.3274   0.00686   0.00335  -0.1213  0.5605  0.8184
   7.030   1.3281   0.00687   0.00336  -0.1212  0.5603  0.8186
   7.040   1.3290   0.00687   0.00336  -0.1212  0.5602  0.8187
   7.050   1.3298   0.00688   0.00337  -0.1212  0.5600  0.8190
   7.060   1.3306   0.00688   0.00337  -0.1211  0.5598  0.8192
   7.070   1.3312   0.00689   0.00338  -0.1210  0.5595  0.8194
   7.080   1.3318   0.00690   0.00339  -0.1209  0.5592  0.8196
   7.090   1.3329   0.00690   0.00339  -0.1209  0.5593  0.8198
   7.100   1.3332   0.00691   0.00340  -0.1208  0.5587  0.8201
   7.110   1.3341   0.00691   0.00340  -0.1208  0.5587  0.8203
   7.120   1.3347   0.00692   0.00341  -0.1207  0.5584  0.8204
   7.130   1.3353   0.00693   0.00342  -0.1206  0.5582  0.8207
   7.140   1.3362   0.00693   0.00342  -0.1205  0.5581  0.8209
   7.150   1.3368   0.00694   0.00343  -0.1205  0.5578  0.8211
   7.160   1.3375   0.00694   0.00344  -0.1204  0.5577  0.8213
   7.170   1.3374   0.00696   0.00345  -0.1202  0.5570  0.8216
   7.180   1.3388   0.00696   0.00345  -0.1202  0.5573  0.8218
   7.190   1.3393   0.00697   0.00346  -0.1201  0.5570  0.8220
   7.200   1.3400   0.00697   0.00347  -0.1201  0.5569  0.8222
   7.210   1.3397   0.00700   0.00348  -0.1198  0.5562  0.8226
   7.220   1.3408   0.00700   0.00348  -0.1198  0.5563  0.8227
   7.230   1.3415   0.00700   0.00349  -0.1197  0.5561  0.8229
   7.240   1.3425   0.00701   0.00350  -0.1197  0.5561  0.8232
   7.250   1.3427   0.00702   0.00351  -0.1195  0.5557  0.8234
   7.260   1.3436   0.00702   0.00351  -0.1195  0.5554  0.8237
   7.270   1.3446   0.00703   0.00352  -0.1195  0.5555  0.8239
   7.280   1.3456   0.00703   0.00352  -0.1195  0.5551  0.8240
   7.290   1.3465   0.00703   0.00353  -0.1195  0.5550  0.8242
   7.300   1.3474   0.00704   0.00353  -0.1195  0.5548  0.8244
   7.310   1.3483   0.00704   0.00354  -0.1194  0.5544  0.8246
   7.320   1.3492   0.00705   0.00354  -0.1194  0.5542  0.8249
   7.330   1.3502   0.00705   0.00355  -0.1194  0.5541  0.8251
   7.340   1.3511   0.00705   0.00355  -0.1194  0.5538  0.8254
   7.350   1.3519   0.00706   0.00356  -0.1193  0.5536  0.8255
   7.360   1.3528   0.00706   0.00356  -0.1193  0.5533  0.8257
   7.370   1.3538   0.00707   0.00357  -0.1193  0.5532  0.8258
   7.380   1.3545   0.00707   0.00357  -0.1192  0.5527  0.8260
   7.390   1.3555   0.00708   0.00358  -0.1192  0.5529  0.8262
   7.400   1.3562   0.00708   0.00358  -0.1192  0.5524  0.8265
   7.410   1.3570   0.00709   0.00359  -0.1191  0.5520  0.8267
   7.420   1.3578   0.00710   0.00360  -0.1191  0.5518  0.8267
   7.430   1.3587   0.00710   0.00360  -0.1190  0.5517  0.8270
   7.440   1.3592   0.00711   0.00361  -0.1189  0.5510  0.8271
   7.450   1.3598   0.00712   0.00362  -0.1188  0.5506  0.8273
   7.470   1.3616   0.00713   0.00363  -0.1188  0.5504  0.8276
   7.480   1.3623   0.00713   0.00364  -0.1187  0.5501  0.8277
   7.490   1.3631   0.00714   0.00364  -0.1187  0.5499  0.8279
   7.500   1.3635   0.00715   0.00365  -0.1185  0.5494  0.8281
   7.510   1.3643   0.00715   0.00366  -0.1185  0.5493  0.8282
   7.520   1.3647   0.00717   0.00367  -0.1184  0.5488  0.8284
   7.530   1.3657   0.00717   0.00367  -0.1184  0.5488  0.8285
   7.540   1.3661   0.00718   0.00368  -0.1182  0.5484  0.8287
   7.550   1.3665   0.00719   0.00369  -0.1181  0.5480  0.8289
   7.560   1.3675   0.00719   0.00370  -0.1181  0.5480  0.8290
   7.570   1.3679   0.00720   0.00371  -0.1180  0.5476  0.8292
   7.580   1.3682   0.00722   0.00372  -0.1178  0.5472  0.8294
   7.590   1.3689   0.00722   0.00373  -0.1178  0.5471  0.8295
   7.600   1.3698   0.00723   0.00373  -0.1177  0.5470  0.8297
   7.610   1.3698   0.00724   0.00375  -0.1175  0.5465  0.8298
   7.620   1.3702   0.00726   0.00376  -0.1174  0.5462  0.8300
   7.630   1.3704   0.00727   0.00377  -0.1172  0.5458  0.8302
   7.640   1.3715   0.00727   0.00377  -0.1172  0.5459  0.8303
   7.650   1.3719   0.00728   0.00378  -0.1171  0.5454  0.8305
   7.660   1.3728   0.00729   0.00379  -0.1171  0.5451  0.8306
   7.670   1.3736   0.00729   0.00380  -0.1170  0.5448  0.8308
   7.680   1.3744   0.00730   0.00380  -0.1170  0.5444  0.8309
   7.690   1.3753   0.00730   0.00381  -0.1170  0.5442  0.8311
   7.700   1.3761   0.00731   0.00382  -0.1169  0.5439  0.8313
   7.710   1.3771   0.00731   0.00382  -0.1169  0.5441  0.8314
   7.720   1.3778   0.00732   0.00383  -0.1169  0.5437  0.8316
   7.730   1.3785   0.00732   0.00384  -0.1168  0.5432  0.8318
   7.740   1.3787   0.00734   0.00385  -0.1166  0.5421  0.8319
   7.750   1.3799   0.00734   0.00385  -0.1167  0.5425  0.8321
   7.760   1.3804   0.00735   0.00386  -0.1166  0.5419  0.8323
   7.770   1.3811   0.00736   0.00387  -0.1165  0.5415  0.8325
   7.780   1.3817   0.00736   0.00388  -0.1164  0.5411  0.8326
   7.790   1.3826   0.00737   0.00388  -0.1164  0.5411  0.8327
   7.800   1.3831   0.00738   0.00389  -0.1163  0.5407  0.8329
   7.810   1.3836   0.00739   0.00390  -0.1162  0.5402  0.8331
   7.820   1.3842   0.00740   0.00391  -0.1161  0.5399  0.8332
   7.830   1.3844   0.00741   0.00392  -0.1159  0.5392  0.8334
   7.840   1.3853   0.00742   0.00393  -0.1159  0.5392  0.8336
   7.850   1.3859   0.00742   0.00394  -0.1158  0.5389  0.8337
   7.860   1.3861   0.00744   0.00395  -0.1157  0.5384  0.8339
   7.870   1.3865   0.00745   0.00396  -0.1155  0.5380  0.8340
   7.880   1.3875   0.00745   0.00396  -0.1155  0.5380  0.8342
   7.890   1.3875   0.00747   0.00398  -0.1153  0.5374  0.8344
   7.900   1.3878   0.00749   0.00399  -0.1152  0.5370  0.8345
   7.910   1.3883   0.00750   0.00400  -0.1151  0.5368  0.8347
   7.920   1.3888   0.00751   0.00401  -0.1150  0.5365  0.8348
   7.930   1.3886   0.00753   0.00403  -0.1147  0.5360  0.8350
   7.940   1.3887   0.00755   0.00404  -0.1145  0.5355  0.8352
   7.950   1.3896   0.00755   0.00405  -0.1145  0.5354  0.8353
   7.960   1.3902   0.00756   0.00406  -0.1144  0.5346  0.8354
   7.970   1.3913   0.00756   0.00406  -0.1145  0.5349  0.8356
   7.980   1.3919   0.00757   0.00407  -0.1144  0.5343  0.8357
   7.990   1.3929   0.00758   0.00408  -0.1144  0.5343  0.8359
   8.000   1.3934   0.00759   0.00409  -0.1143  0.5336  0.8360
   8.010   1.3942   0.00759   0.00409  -0.1142  0.5334  0.8362
   8.020   1.3947   0.00760   0.00410  -0.1141  0.5327  0.8363
   8.030   1.3953   0.00761   0.00411  -0.1140  0.5322  0.8364
   8.040   1.3957   0.00763   0.00412  -0.1139  0.5315  0.8366
   8.050   1.3966   0.00763   0.00413  -0.1139  0.5315  0.8367
   8.060   1.3970   0.00765   0.00414  -0.1138  0.5308  0.8369
   8.070   1.3972   0.00766   0.00416  -0.1136  0.5301  0.8370
   8.080   1.3981   0.00767   0.00416  -0.1136  0.5300  0.8371
   8.090   1.3987   0.00768   0.00417  -0.1135  0.5298  0.8372
   8.100   1.3990   0.00769   0.00418  -0.1134  0.5292  0.8374
   8.110   1.3991   0.00771   0.00420  -0.1132  0.5286  0.8375
   8.120   1.3996   0.00772   0.00421  -0.1131  0.5283  0.8376
   8.130   1.4000   0.00773   0.00422  -0.1130  0.5280  0.8378
   8.150   1.3997   0.00777   0.00426  -0.1125  0.5267  0.8380
   8.160   1.4002   0.00778   0.00427  -0.1124  0.5266  0.8382
   8.170   1.4001   0.00780   0.00429  -0.1122  0.5260  0.8383
   8.180   1.3996   0.00783   0.00431  -0.1119  0.5252  0.8385
   8.190   1.4003   0.00784   0.00432  -0.1118  0.5250  0.8386
   8.200   1.4011   0.00784   0.00433  -0.1118  0.5247  0.8387
   8.210   1.4016   0.00785   0.00434  -0.1117  0.5242  0.8389
   8.220   1.4021   0.00787   0.00435  -0.1116  0.5236  0.8390
   8.230   1.4027   0.00787   0.00436  -0.1115  0.5233  0.8392
   8.240   1.4027   0.00789   0.00438  -0.1113  0.5222  0.8393
   8.250   1.4034   0.00790   0.00439  -0.1113  0.5221  0.8394
   8.260   1.4043   0.00791   0.00439  -0.1112  0.5220  0.8395
   8.270   1.4051   0.00791   0.00440  -0.1112  0.5219  0.8397
   8.280   1.4048   0.00794   0.00442  -0.1109  0.5207  0.8398
   8.290   1.4052   0.00795   0.00443  -0.1108  0.5203  0.8399
   8.300   1.4047   0.00798   0.00446  -0.1105  0.5191  0.8401
   8.310   1.4058   0.00798   0.00446  -0.1105  0.5193  0.8402
   8.320   1.4058   0.00800   0.00448  -0.1103  0.5186  0.8404
   8.330   1.4067   0.00800   0.00449  -0.1103  0.5186  0.8405
   8.340   1.4029   0.00809   0.00456  -0.1094  0.5159  0.8407
   8.350   1.4064   0.00805   0.00453  -0.1099  0.5173  0.8408
   8.360   1.4054   0.00809   0.00456  -0.1095  0.5163  0.8410
   8.370   1.4038   0.00813   0.00460  -0.1090  0.5149  0.8412
   8.380   1.4062   0.00811   0.00459  -0.1093  0.5159  0.8413
   8.390   1.4054   0.00815   0.00462  -0.1089  0.5148  0.8414
   8.400   1.4061   0.00815   0.00463  -0.1089  0.5147  0.8416
   8.410   1.4060   0.00818   0.00465  -0.1087  0.5136  0.8417
   8.420   1.4061   0.00820   0.00467  -0.1085  0.5128  0.8418
   8.430   1.4073   0.00819   0.00467  -0.1085  0.5132  0.8420
   8.440   1.4075   0.00821   0.00468  -0.1084  0.5125  0.8421
   8.450   1.4055   0.00827   0.00473  -0.1078  0.5099  0.8423
   8.460   1.4074   0.00826   0.00473  -0.1080  0.5108  0.8424
   8.470   1.4063   0.00830   0.00476  -0.1076  0.5092  0.8426
   8.480   1.4068   0.00831   0.00477  -0.1075  0.5090  0.8428
   8.490   1.4077   0.00832   0.00478  -0.1075  0.5090  0.8428
   8.500   1.4073   0.00835   0.00481  -0.1072  0.5081  0.8430
   8.510   1.4069   0.00837   0.00483  -0.1069  0.5074  0.8432
   8.520   1.4044   0.00844   0.00489  -0.1063  0.5057  0.8434
   8.530   1.4056   0.00844   0.00490  -0.1063  0.5059  0.8435
   8.540   1.4054   0.00847   0.00492  -0.1061  0.5054  0.8437
   8.550   1.4059   0.00848   0.00493  -0.1060  0.5053  0.8438
   8.560   1.4054   0.00852   0.00496  -0.1057  0.5042  0.8440
   8.570   1.4057   0.00853   0.00498  -0.1056  0.5038  0.8441
   8.580   1.4050   0.00857   0.00501  -0.1053  0.5023  0.8443
   8.590   1.4050   0.00859   0.00503  -0.1051  0.5017  0.8445
   8.600   1.4058   0.00860   0.00504  -0.1050  0.5016  0.8446
   8.610   1.4052   0.00863   0.00507  -0.1048  0.5006  0.8448
   8.620   1.4042   0.00868   0.00511  -0.1044  0.4993  0.8449
   8.630   1.4027   0.00873   0.00516  -0.1039  0.4978  0.8452
   8.640   1.4040   0.00873   0.00516  -0.1040  0.4981  0.8453
   8.650   1.4034   0.00877   0.00520  -0.1037  0.4973  0.8454
   8.660   1.4017   0.00883   0.00525  -0.1032  0.4961  0.8457
   8.670   1.4028   0.00883   0.00525  -0.1032  0.4962  0.8458
   8.680   1.3996   0.00892   0.00533  -0.1025  0.4941  0.8460
   8.690   1.4005   0.00893   0.00534  -0.1025  0.4942  0.8462
   8.700   1.3995   0.00897   0.00538  -0.1021  0.4929  0.8464
   8.710   1.4010   0.00897   0.00538  -0.1022  0.4934  0.8465
   8.720   1.4002   0.00901   0.00542  -0.1019  0.4922  0.8467
   8.730   1.4001   0.00904   0.00545  -0.1017  0.4916  0.8469
   8.740   1.4002   0.00906   0.00547  -0.1015  0.4911  0.8470
   8.750   1.3976   0.00915   0.00555  -0.1009  0.4889  0.8472
   8.760   1.3962   0.00921   0.00560  -0.1005  0.4877  0.8474
   8.770   1.3964   0.00923   0.00562  -0.1003  0.4874  0.8476
   8.780   1.3962   0.00926   0.00565  -0.1001  0.4869  0.8477
   8.790   1.3968   0.00927   0.00567  -0.1000  0.4868  0.8478
   8.800   1.3935   0.00938   0.00576  -0.0993  0.4851  0.8481
   8.810   1.3930   0.00942   0.00580  -0.0990  0.4846  0.8483
   8.840   1.3902   0.00957   0.00595  -0.0981  0.4813  0.8488
   8.850   1.3887   0.00964   0.00601  -0.0976  0.4799  0.8490
   8.860   1.3878   0.00969   0.00606  -0.0973  0.4790  0.8492
   8.870   1.3895   0.00967   0.00605  -0.0974  0.4795  0.8493
   8.880   1.3877   0.00975   0.00612  -0.0970  0.4782  0.8495
   8.890   1.3880   0.00977   0.00614  -0.0968  0.4780  0.8496
   8.900   1.3832   0.00993   0.00629  -0.0959  0.4756  0.8500
   8.910   1.3827   0.00998   0.00634  -0.0956  0.4751  0.8502
   8.920   1.3839   0.00997   0.00634  -0.0957  0.4753  0.8503
   8.930   1.3799   0.01012   0.00647  -0.0948  0.4730  0.8506
   8.940   1.3823   0.01008   0.00644  -0.0951  0.4740  0.8506
   8.950   1.3803   0.01017   0.00653  -0.0946  0.4725  0.8508
   8.960   1.3782   0.01026   0.00662  -0.0941  0.4709  0.8511
   8.970   1.3772   0.01033   0.00668  -0.0938  0.4700  0.8513
   8.980   1.3755   0.01041   0.00676  -0.0934  0.4688  0.8515
   8.990   1.3744   0.01048   0.00683  -0.0930  0.4679  0.8517
   9.000   1.3758   0.01047   0.00683  -0.0931  0.4683  0.8518
   9.010   1.3683   0.01075   0.00709  -0.0918  0.4648  0.8522
   9.020   1.3734   0.01062   0.00697  -0.0924  0.4665  0.8521
   9.030   1.3681   0.01084   0.00717  -0.0914  0.4643  0.8525
   9.040   1.3660   0.01095   0.00728  -0.0910  0.4629  0.8527
   9.050   1.3679   0.01092   0.00726  -0.0911  0.4635  0.8528
   9.060   1.3663   0.01101   0.00735  -0.0907  0.4623  0.8531
   9.070   1.3659   0.01107   0.00740  -0.0905  0.4618  0.8532
   9.080   1.3658   0.01111   0.00745  -0.0903  0.4613  0.8534
   9.090   1.3635   0.01124   0.00757  -0.0898  0.4597  0.8536
   9.100   1.3623   0.01132   0.00765  -0.0895  0.4588  0.8538
   9.110   1.3601   0.01145   0.00777  -0.0891  0.4574  0.8541
   9.120   1.3622   0.01141   0.00774  -0.0892  0.4581  0.8541
   9.130   1.3593   0.01156   0.00788  -0.0887  0.4565  0.8543
   9.140   1.3537   0.01183   0.00814  -0.0877  0.4541  0.8548
   9.150   1.3528   0.01191   0.00822  -0.0875  0.4535  0.8549
   9.160   1.3535   0.01193   0.00824  -0.0874  0.4535  0.8551
   9.170   1.3516   0.01205   0.00836  -0.0870  0.4521  0.8552
   9.180   1.3508   0.01213   0.00844  -0.0868  0.4512  0.8555
   9.190   1.3501   0.01221   0.00851  -0.0866  0.4505  0.8556
   9.200   1.3470   0.01239   0.00869  -0.0860  0.4485  0.8558
   9.210   1.3498   0.01232   0.00862  -0.0862  0.4496  0.8560
   9.220   1.3455   0.01255   0.00885  -0.0855  0.4470  0.8562
   9.230   1.3463   0.01257   0.00886  -0.0855  0.4471  0.8563
   9.240   1.3437   0.01273   0.00902  -0.0850  0.4456  0.8567
   9.250   1.3413   0.01289   0.00917  -0.0845  0.4444  0.8569
   9.260   1.3379   0.01309   0.00936  -0.0840  0.4429  0.8571
   9.270   1.3385   0.01311   0.00939  -0.0839  0.4427  0.8572
   9.280   1.3373   0.01322   0.00949  -0.0836  0.4417  0.8574
   9.290   1.3364   0.01331   0.00958  -0.0834  0.4408  0.8576
   9.300   1.3373   0.01332   0.00959  -0.0834  0.4409  0.8577
   9.310   1.3367   0.01340   0.00967  -0.0831  0.4401  0.8579
   9.320   1.3370   0.01343   0.00971  -0.0831  0.4400  0.8580
   9.330   1.3338   0.01363   0.00989  -0.0825  0.4380  0.8582
   9.340   1.3334   0.01370   0.00996  -0.0823  0.4374  0.8583
   9.350   1.3347   0.01370   0.00996  -0.0824  0.4377  0.8584
   9.360   1.3293   0.01399   0.01024  -0.0815  0.4349  0.8586
   9.380   1.3282   0.01413   0.01039  -0.0811  0.4340  0.8590
   9.390   1.3278   0.01420   0.01045  -0.0809  0.4336  0.8592
   9.400   1.3256   0.01435   0.01060  -0.0805  0.4325  0.8595
   9.410   1.3248   0.01443   0.01068  -0.0803  0.4316  0.8596
   9.420   1.3254   0.01446   0.01070  -0.0802  0.4316  0.8597
   9.430   1.3212   0.01469   0.01093  -0.0795  0.4288  0.8600
   9.440   1.3149   0.01502   0.01125  -0.0786  0.4254  0.8604
   9.450   1.3197   0.01486   0.01110  -0.0791  0.4274  0.8603
   9.460   1.3205   0.01488   0.01112  -0.0791  0.4275  0.8604
   9.470   1.3212   0.01489   0.01113  -0.0790  0.4276  0.8606
   9.480   1.3177   0.01510   0.01133  -0.0784  0.4255  0.8608
   9.490   1.3149   0.01527   0.01150  -0.0779  0.4240  0.8611
   9.500   1.3132   0.01539   0.01162  -0.0776  0.4231  0.8613
   9.510   1.3144   0.01539   0.01162  -0.0776  0.4233  0.8614
   9.520   1.3114   0.01557   0.01180  -0.0771  0.4220  0.8617
   9.530   1.3098   0.01569   0.01191  -0.0768  0.4208  0.8617
   9.540   1.3120   0.01565   0.01187  -0.0769  0.4217  0.8619
   9.550   1.3067   0.01593   0.01214  -0.0761  0.4182  0.8622
   9.560   1.3088   0.01589   0.01210  -0.0762  0.4191  0.8624
   9.570   1.3087   0.01594   0.01216  -0.0761  0.4186  0.8626
   9.580   1.3077   0.01603   0.01224  -0.0758  0.4178  0.8628
   9.590   1.3077   0.01608   0.01230  -0.0757  0.4174  0.8628
   9.600   1.3060   0.01620   0.01242  -0.0753  0.4162  0.8630
   9.610   1.3038   0.01635   0.01256  -0.0749  0.4149  0.8632
   9.620   1.3008   0.01653   0.01273  -0.0744  0.4135  0.8634
   9.630   1.3020   0.01653   0.01273  -0.0745  0.4136  0.8636
   9.640   1.3021   0.01657   0.01278  -0.0743  0.4134  0.8638
   9.650   1.2966   0.01687   0.01306  -0.0735  0.4109  0.8641
   9.660   1.2980   0.01686   0.01305  -0.0735  0.4114  0.8642
   9.670   1.2980   0.01690   0.01310  -0.0734  0.4110  0.8643
   9.680   1.2983   0.01694   0.01313  -0.0733  0.4107  0.8645
   9.690   1.2974   0.01703   0.01322  -0.0731  0.4098  0.8647
   9.700   1.2961   0.01713   0.01332  -0.0728  0.4086  0.8649
   9.710   1.2980   0.01710   0.01329  -0.0729  0.4093  0.8651
   9.720   1.2949   0.01729   0.01347  -0.0724  0.4072  0.8652
   9.730   1.2928   0.01743   0.01361  -0.0720  0.4057  0.8654
   9.740   1.2936   0.01745   0.01363  -0.0720  0.4058  0.8656
   9.750   1.2944   0.01746   0.01364  -0.0720  0.4060  0.8657
   9.760   1.2897   0.01772   0.01389  -0.0712  0.4034  0.8659
   9.770   1.2878   0.01785   0.01402  -0.0709  0.4024  0.8662
   9.780   1.2898   0.01782   0.01399  -0.0710  0.4029  0.8663
   9.790   1.2875   0.01797   0.01413  -0.0706  0.4018  0.8665
   9.800   1.2881   0.01799   0.01416  -0.0705  0.4017  0.8666
   9.810   1.2866   0.01811   0.01427  -0.0702  0.4009  0.8668
   9.820   1.2878   0.01811   0.01428  -0.0702  0.4011  0.8669
   9.830   1.2813   0.01844   0.01459  -0.0693  0.3966  0.8673
   9.840   1.2867   0.01826   0.01441  -0.0699  0.3996  0.8673
   9.850   1.2837   0.01844   0.01459  -0.0694  0.3973  0.8676
   9.860   1.2853   0.01842   0.01457  -0.0694  0.3979  0.8676
   9.870   1.2845   0.01851   0.01466  -0.0692  0.3971  0.8678
   9.880   1.2822   0.01866   0.01481  -0.0688  0.3954  0.8680
   9.890   1.2807   0.01878   0.01492  -0.0685  0.3944  0.8682
