  
       XFOIL         Version 6.94
  
 Calculated polar for: 1080                                            
  
 1 1 Reynolds number fixed          Mach number fixed         
  
 xtrf =   1.000 (top)        1.000 (bottom)  
 Mach =   0.000     Re =     2.000 e 6     Ncrit =   9.000
  
  alpha     CL        CD       CDp       CM    Top_Xtr Bot_Xtr
 ------- -------- --------- --------- -------- ------- -------
   6.000   1.3090   0.00956   0.00444  -0.0922  0.3170  0.7543
   6.010   1.3100   0.00957   0.00445  -0.0922  0.3168  0.7544
   6.020   1.3111   0.00957   0.00445  -0.0922  0.3170  0.7544
   6.030   1.3122   0.00958   0.00446  -0.0922  0.3167  0.7545
   6.040   1.3131   0.00959   0.00447  -0.0922  0.3163  0.7546
   6.050   1.3140   0.00960   0.00448  -0.0922  0.3151  0.7546
   6.060   1.3152   0.00960   0.00448  -0.0922  0.3159  0.7547
   6.070   1.3163   0.00960   0.00448  -0.0922  0.3159  0.7548
   6.080   1.3174   0.00961   0.00449  -0.0922  0.3159  0.7548
   6.090   1.3184   0.00962   0.00449  -0.0922  0.3155  0.7549
   6.100   1.3193   0.00963   0.00450  -0.0922  0.3150  0.7550
   6.110   1.3203   0.00964   0.00451  -0.0922  0.3145  0.7551
   6.120   1.3215   0.00963   0.00451  -0.0922  0.3151  0.7551
   6.130   1.3222   0.00965   0.00453  -0.0922  0.3140  0.7552
   6.140   1.3234   0.00966   0.00453  -0.0922  0.3142  0.7553
   6.150   1.3247   0.00965   0.00453  -0.0922  0.3148  0.7553
   6.160   1.3238   0.00975   0.00459  -0.0919  0.3106  0.7554
   6.170   1.3220   0.00989   0.00468  -0.0914  0.3033  0.7556
   6.180   1.3277   0.00967   0.00455  -0.0922  0.3141  0.7555
   6.190   1.3287   0.00968   0.00456  -0.0922  0.3140  0.7556
   6.200   1.3266   0.00984   0.00465  -0.0917  0.3064  0.7557
   6.210   1.3282   0.00981   0.00464  -0.0918  0.3089  0.7558
   6.220   1.3237   0.01008   0.00481  -0.0909  0.2949  0.7560
   6.230   1.3267   0.01000   0.00476  -0.0912  0.2999  0.7560
   6.240   1.3253   0.01012   0.00484  -0.0908  0.2940  0.7561
   6.250   1.3279   0.01005   0.00480  -0.0910  0.2968  0.7562
   6.260   1.3319   0.00992   0.00472  -0.0915  0.3037  0.7562
   6.270   1.3306   0.01003   0.00479  -0.0911  0.2986  0.7563
   6.280   1.3321   0.01002   0.00478  -0.0912  0.3000  0.7564
   6.290   1.3355   0.00991   0.00472  -0.0916  0.3045  0.7564
   6.300   1.3295   0.01024   0.00493  -0.0905  0.2888  0.7566
   6.310   1.3351   0.01004   0.00480  -0.0912  0.2991  0.7566
   6.320   1.3301   0.01032   0.00498  -0.0902  0.2860  0.7568
   6.330   1.3325   0.01026   0.00495  -0.0904  0.2882  0.7568
   6.340   1.3320   0.01034   0.00500  -0.0902  0.2856  0.7569
   6.350   1.3318   0.01040   0.00504  -0.0900  0.2828  0.7570
   6.360   1.3362   0.01025   0.00495  -0.0905  0.2895  0.7570
   6.370   1.3362   0.01031   0.00499  -0.0903  0.2872  0.7571
   6.380   1.3352   0.01040   0.00505  -0.0900  0.2836  0.7572
   6.390   1.3450   0.01001   0.00480  -0.0914  0.3024  0.7571
   6.400   1.3447   0.01008   0.00485  -0.0912  0.2995  0.7572
   6.410   1.3380   0.01043   0.00507  -0.0900  0.2826  0.7574
   6.420   1.3418   0.01031   0.00500  -0.0904  0.2878  0.7574
   6.430   1.3404   0.01043   0.00508  -0.0900  0.2833  0.7575
   6.440   1.3503   0.01003   0.00483  -0.0914  0.3025  0.7574
   6.450   1.3424   0.01044   0.00509  -0.0900  0.2831  0.7577
   6.460   1.3437   0.01044   0.00509  -0.0900  0.2839  0.7577
   6.470   1.3433   0.01050   0.00513  -0.0898  0.2801  0.7578
   6.480   1.3419   0.01062   0.00521  -0.0894  0.2761  0.7579
   6.490   1.3457   0.01050   0.00514  -0.0898  0.2806  0.7579
   6.500   1.3480   0.01045   0.00511  -0.0900  0.2843  0.7580
   6.510   1.3484   0.01048   0.00513  -0.0899  0.2821  0.7581
   6.520   1.3491   0.01050   0.00514  -0.0899  0.2813  0.7581
   6.530   1.3480   0.01060   0.00521  -0.0895  0.2776  0.7582
   6.540   1.3477   0.01066   0.00526  -0.0893  0.2748  0.7583
   6.550   1.3491   0.01065   0.00525  -0.0894  0.2760  0.7584
   6.560   1.3499   0.01067   0.00526  -0.0893  0.2751  0.7584
   6.570   1.3543   0.01053   0.00517  -0.0899  0.2812  0.7584
   6.580   1.3536   0.01061   0.00523  -0.0896  0.2780  0.7585
   6.590   1.3543   0.01063   0.00524  -0.0896  0.2776  0.7586
   6.600   1.3544   0.01068   0.00528  -0.0894  0.2763  0.7587
   6.610   1.3573   0.01060   0.00523  -0.0897  0.2789  0.7587
