  
       XFOIL         Version 6.94
  
 Calculated polar for: 1080                                            
  
 1 1 Reynolds number fixed          Mach number fixed         
  
 xtrf =   1.000 (top)        1.000 (bottom)  
 Mach =   0.000     Re =     2.000 e 6     Ncrit =   9.000
  
  alpha     CL        CD       CDp       CM    Top_Xtr Bot_Xtr
 ------- -------- --------- --------- -------- ------- -------
   6.000   1.4449   0.01035   0.00527  -0.1100  0.3314  0.7457
   6.010   1.4459   0.01036   0.00527  -0.1100  0.3313  0.7458
   6.020   1.4468   0.01037   0.00528  -0.1099  0.3311  0.7458
   6.030   1.4476   0.01038   0.00529  -0.1099  0.3309  0.7459
   6.040   1.4486   0.01038   0.00530  -0.1099  0.3309  0.7459
   6.050   1.4495   0.01039   0.00530  -0.1099  0.3308  0.7460
   6.060   1.4504   0.01040   0.00531  -0.1099  0.3306  0.7461
   6.070   1.4512   0.01040   0.00532  -0.1098  0.3305  0.7461
   6.080   1.4521   0.01041   0.00532  -0.1098  0.3303  0.7462
   6.090   1.4530   0.01042   0.00533  -0.1098  0.3302  0.7462
   6.100   1.4539   0.01043   0.00534  -0.1097  0.3301  0.7463
   6.110   1.4547   0.01044   0.00535  -0.1097  0.3299  0.7463
   6.120   1.4556   0.01044   0.00535  -0.1097  0.3298  0.7464
   6.130   1.4564   0.01045   0.00536  -0.1097  0.3297  0.7464
   6.140   1.4572   0.01046   0.00537  -0.1096  0.3295  0.7465
   6.150   1.4581   0.01047   0.00538  -0.1096  0.3294  0.7465
   6.160   1.4589   0.01048   0.00538  -0.1095  0.3293  0.7466
   6.170   1.4597   0.01048   0.00539  -0.1095  0.3291  0.7467
   6.180   1.4605   0.01049   0.00540  -0.1095  0.3290  0.7467
   6.190   1.4614   0.01050   0.00541  -0.1094  0.3289  0.7468
   6.200   1.4621   0.01051   0.00542  -0.1094  0.3287  0.7468
   6.210   1.4629   0.01052   0.00542  -0.1093  0.3286  0.7469
   6.220   1.4637   0.01053   0.00543  -0.1093  0.3284  0.7470
   6.230   1.4644   0.01054   0.00544  -0.1092  0.3282  0.7470
   6.240   1.4652   0.01055   0.00545  -0.1092  0.3281  0.7471
   6.250   1.4660   0.01055   0.00546  -0.1092  0.3280  0.7471
   6.260   1.4668   0.01056   0.00547  -0.1091  0.3279  0.7472
   6.270   1.4675   0.01057   0.00547  -0.1091  0.3278  0.7473
   6.280   1.4681   0.01059   0.00549  -0.1090  0.3275  0.7473
   6.290   1.4691   0.01059   0.00549  -0.1090  0.3275  0.7474
   6.300   1.4698   0.01060   0.00550  -0.1089  0.3274  0.7474
   6.310   1.4704   0.01061   0.00551  -0.1088  0.3272  0.7475
   6.320   1.4713   0.01061   0.00552  -0.1088  0.3271  0.7475
   6.330   1.4721   0.01062   0.00553  -0.1088  0.3270  0.7476
   6.340   1.4727   0.01064   0.00554  -0.1087  0.3268  0.7477
   6.350   1.4733   0.01065   0.00555  -0.1086  0.3265  0.7477
   6.360   1.4741   0.01066   0.00556  -0.1086  0.3264  0.7478
   6.370   1.4750   0.01066   0.00556  -0.1086  0.3264  0.7479
   6.380   1.4756   0.01068   0.00557  -0.1085  0.3262  0.7479
   6.390   1.4762   0.01069   0.00558  -0.1084  0.3260  0.7480
   6.400   1.4771   0.01069   0.00559  -0.1084  0.3259  0.7480
   6.410   1.4778   0.01070   0.00560  -0.1083  0.3258  0.7481
   6.420   1.4785   0.01071   0.00561  -0.1083  0.3256  0.7482
   6.430   1.4791   0.01073   0.00562  -0.1082  0.3253  0.7482
   6.440   1.4799   0.01073   0.00563  -0.1081  0.3253  0.7483
   6.450   1.4806   0.01074   0.00564  -0.1081  0.3252  0.7483
   6.460   1.4814   0.01075   0.00564  -0.1081  0.3251  0.7484
   6.470   1.4823   0.01076   0.00565  -0.1080  0.3249  0.7485
   6.480   1.4833   0.01076   0.00565  -0.1080  0.3249  0.7485
   6.490   1.4841   0.01077   0.00566  -0.1080  0.3248  0.7486
   6.500   1.4850   0.01077   0.00567  -0.1080  0.3247  0.7486
   6.510   1.4859   0.01078   0.00567  -0.1079  0.3246  0.7487
   6.520   1.4869   0.01078   0.00568  -0.1079  0.3245  0.7488
   6.530   1.4877   0.01079   0.00568  -0.1079  0.3244  0.7488
   6.540   1.4886   0.01079   0.00569  -0.1079  0.3244  0.7489
   6.550   1.4895   0.01080   0.00570  -0.1078  0.3243  0.7489
   6.560   1.4904   0.01081   0.00570  -0.1078  0.3242  0.7490
   6.570   1.4912   0.01081   0.00571  -0.1078  0.3240  0.7491
   6.580   1.4921   0.01082   0.00572  -0.1078  0.3240  0.7491
   6.590   1.4930   0.01083   0.00572  -0.1077  0.3238  0.7492
   6.600   1.4939   0.01083   0.00573  -0.1077  0.3238  0.7493
   6.610   1.4948   0.01084   0.00574  -0.1077  0.3237  0.7493
   6.620   1.4957   0.01084   0.00574  -0.1077  0.3236  0.7494
   6.630   1.4965   0.01085   0.00575  -0.1076  0.3234  0.7494
   6.640   1.4974   0.01086   0.00576  -0.1076  0.3234  0.7495
   6.650   1.4983   0.01086   0.00576  -0.1076  0.3234  0.7496
   6.660   1.4991   0.01087   0.00577  -0.1075  0.3232  0.7496
   6.670   1.5000   0.01088   0.00578  -0.1075  0.3231  0.7497
   6.680   1.5008   0.01088   0.00578  -0.1075  0.3230  0.7498
   6.690   1.5016   0.01089   0.00579  -0.1074  0.3228  0.7498
   6.700   1.5026   0.01090   0.00580  -0.1074  0.3229  0.7499
   6.710   1.5033   0.01091   0.00581  -0.1074  0.3226  0.7500
   6.720   1.5043   0.01091   0.00581  -0.1074  0.3226  0.7500
   6.730   1.5051   0.01092   0.00582  -0.1073  0.3224  0.7501
   6.740   1.5059   0.01093   0.00583  -0.1073  0.3224  0.7502
   6.750   1.5068   0.01093   0.00584  -0.1073  0.3223  0.7502
   6.760   1.5075   0.01095   0.00585  -0.1072  0.3220  0.7503
   6.770   1.5084   0.01095   0.00585  -0.1072  0.3220  0.7504
   6.780   1.5092   0.01096   0.00586  -0.1072  0.3219  0.7504
   6.790   1.5101   0.01097   0.00587  -0.1071  0.3218  0.7505
   6.800   1.5109   0.01097   0.00587  -0.1071  0.3217  0.7506
   6.810   1.5117   0.01098   0.00588  -0.1071  0.3216  0.7506
   6.820   1.5125   0.01099   0.00589  -0.1070  0.3214  0.7507
   6.830   1.5134   0.01100   0.00590  -0.1070  0.3213  0.7508
   6.840   1.5142   0.01101   0.00591  -0.1069  0.3212  0.7508
   6.850   1.5151   0.01101   0.00592  -0.1069  0.3212  0.7509
   6.860   1.5157   0.01103   0.00593  -0.1069  0.3209  0.7510
   6.870   1.5165   0.01103   0.00594  -0.1068  0.3208  0.7510
   6.880   1.5174   0.01104   0.00594  -0.1068  0.3209  0.7511
   6.890   1.5181   0.01105   0.00595  -0.1067  0.3206  0.7512
   6.900   1.5189   0.01106   0.00596  -0.1067  0.3205  0.7512
   6.910   1.5197   0.01107   0.00597  -0.1067  0.3205  0.7513
   6.920   1.5207   0.01107   0.00598  -0.1067  0.3205  0.7514
   6.930   1.5213   0.01109   0.00599  -0.1066  0.3202  0.7514
   6.940   1.5220   0.01110   0.00600  -0.1065  0.3200  0.7515
   6.950   1.5228   0.01111   0.00601  -0.1065  0.3200  0.7516
   6.960   1.5235   0.01112   0.00602  -0.1064  0.3198  0.7516
   6.970   1.5243   0.01113   0.00602  -0.1064  0.3197  0.7517
   6.980   1.5251   0.01113   0.00603  -0.1064  0.3197  0.7518
   6.990   1.5258   0.01115   0.00604  -0.1063  0.3195  0.7519
   7.000   1.5265   0.01116   0.00605  -0.1062  0.3194  0.7519
   7.010   1.5273   0.01117   0.00606  -0.1062  0.3192  0.7520
   7.020   1.5280   0.01118   0.00607  -0.1062  0.3191  0.7521
   7.030   1.5288   0.01119   0.00608  -0.1061  0.3190  0.7521
   7.040   1.5295   0.01120   0.00609  -0.1061  0.3189  0.7522
   7.050   1.5301   0.01121   0.00611  -0.1060  0.3187  0.7523
   7.060   1.5310   0.01122   0.00611  -0.1060  0.3187  0.7523
   7.070   1.5317   0.01123   0.00612  -0.1059  0.3186  0.7524
   7.080   1.5324   0.01124   0.00613  -0.1058  0.3184  0.7525
   7.090   1.5332   0.01125   0.00614  -0.1058  0.3184  0.7525
   7.100   1.5339   0.01126   0.00615  -0.1058  0.3183  0.7526
   7.110   1.5346   0.01127   0.00616  -0.1057  0.3181  0.7527
   7.120   1.5352   0.01129   0.00618  -0.1056  0.3180  0.7527
   7.130   1.5361   0.01129   0.00618  -0.1056  0.3180  0.7528
   7.140   1.5367   0.01131   0.00620  -0.1055  0.3178  0.7529
   7.150   1.5373   0.01132   0.00621  -0.1055  0.3175  0.7529
   7.160   1.5381   0.01133   0.00622  -0.1054  0.3175  0.7530
   7.170   1.5387   0.01134   0.00623  -0.1054  0.3173  0.7531
   7.180   1.5394   0.01136   0.00624  -0.1053  0.3172  0.7531
   7.190   1.5402   0.01137   0.00625  -0.1053  0.3171  0.7532
   7.200   1.5409   0.01138   0.00626  -0.1052  0.3170  0.7533
   7.210   1.5415   0.01139   0.00628  -0.1051  0.3169  0.7533
   7.220   1.5423   0.01140   0.00629  -0.1051  0.3168  0.7534
   7.230   1.5432   0.01141   0.00629  -0.1051  0.3168  0.7534
   7.240   1.5433   0.01144   0.00632  -0.1049  0.3163  0.7535
   7.250   1.5436   0.01146   0.00634  -0.1048  0.3159  0.7536
   7.260   1.5452   0.01145   0.00633  -0.1049  0.3164  0.7536
   7.270   1.5455   0.01147   0.00635  -0.1048  0.3160  0.7537
   7.280   1.5450   0.01152   0.00639  -0.1045  0.3151  0.7538
