  
       XFOIL         Version 6.94
  
 Calculated polar for: 1080                                            
  
 1 1 Reynolds number fixed          Mach number fixed         
  
 xtrf =   1.000 (top)        1.000 (bottom)  
 Mach =   0.000     Re =     2.000 e 6     Ncrit =   9.000
  
  alpha     CL        CD       CDp       CM    Top_Xtr Bot_Xtr
 ------- -------- --------- --------- -------- ------- -------
   6.000   1.1919   0.00854   0.00393  -0.0775  0.4397  0.7292
   6.010   1.1928   0.00855   0.00393  -0.0775  0.4397  0.7292
   6.020   1.1938   0.00855   0.00394  -0.0775  0.4397  0.7292
   6.030   1.1947   0.00856   0.00394  -0.0775  0.4394  0.7293
   6.040   1.1957   0.00856   0.00395  -0.0775  0.4393  0.7293
   6.050   1.1966   0.00856   0.00395  -0.0775  0.4393  0.7294
   6.060   1.1976   0.00857   0.00396  -0.0775  0.4391  0.7294
   6.070   1.1985   0.00857   0.00396  -0.0774  0.4392  0.7295
   6.080   1.1994   0.00858   0.00397  -0.0774  0.4389  0.7295
   6.090   1.2004   0.00858   0.00397  -0.0774  0.4388  0.7296
   6.100   1.2013   0.00859   0.00398  -0.0774  0.4389  0.7296
   6.110   1.2022   0.00859   0.00398  -0.0774  0.4386  0.7297
   6.120   1.2032   0.00859   0.00399  -0.0774  0.4386  0.7297
   6.130   1.2040   0.00860   0.00399  -0.0774  0.4383  0.7298
   6.140   1.2050   0.00860   0.00400  -0.0774  0.4384  0.7298
   6.150   1.2058   0.00861   0.00400  -0.0773  0.4380  0.7299
   6.160   1.2069   0.00861   0.00401  -0.0773  0.4382  0.7299
   6.170   1.2078   0.00862   0.00401  -0.0773  0.4380  0.7300
   6.180   1.2087   0.00862   0.00402  -0.0773  0.4380  0.7300
   6.190   1.2096   0.00863   0.00402  -0.0773  0.4378  0.7301
   6.200   1.2105   0.00863   0.00402  -0.0773  0.4377  0.7301
   6.210   1.2113   0.00864   0.00403  -0.0772  0.4375  0.7302
   6.220   1.2123   0.00864   0.00404  -0.0772  0.4375  0.7302
   6.230   1.2132   0.00865   0.00404  -0.0772  0.4373  0.7303
   6.240   1.2141   0.00865   0.00405  -0.0772  0.4373  0.7303
   6.250   1.2149   0.00866   0.00405  -0.0771  0.4370  0.7304
   6.260   1.2158   0.00866   0.00406  -0.0771  0.4370  0.7304
   6.270   1.2168   0.00867   0.00406  -0.0771  0.4369  0.7305
   6.280   1.2176   0.00867   0.00407  -0.0771  0.4368  0.7305
   6.290   1.2185   0.00868   0.00407  -0.0771  0.4366  0.7306
   6.300   1.2194   0.00869   0.00408  -0.0771  0.4366  0.7307
   6.310   1.2203   0.00869   0.00408  -0.0770  0.4365  0.7307
   6.320   1.2211   0.00870   0.00409  -0.0770  0.4364  0.7307
   6.330   1.2220   0.00870   0.00409  -0.0770  0.4361  0.7308
   6.340   1.2230   0.00871   0.00410  -0.0770  0.4361  0.7309
   6.350   1.2239   0.00871   0.00410  -0.0770  0.4361  0.7309
   6.360   1.2246   0.00872   0.00411  -0.0769  0.4358  0.7310
   6.370   1.2255   0.00873   0.00412  -0.0769  0.4358  0.7310
   6.380   1.2264   0.00873   0.00412  -0.0769  0.4357  0.7311
   6.390   1.2272   0.00874   0.00413  -0.0768  0.4355  0.7311
   6.400   1.2281   0.00875   0.00413  -0.0768  0.4354  0.7312
   6.410   1.2290   0.00875   0.00414  -0.0768  0.4353  0.7312
   6.420   1.2299   0.00876   0.00414  -0.0768  0.4353  0.7313
   6.430   1.2306   0.00876   0.00415  -0.0767  0.4351  0.7313
   6.440   1.2315   0.00877   0.00416  -0.0767  0.4350  0.7314
   6.450   1.2323   0.00878   0.00416  -0.0767  0.4349  0.7314
   6.460   1.2331   0.00878   0.00417  -0.0766  0.4348  0.7315
   6.470   1.2339   0.00879   0.00418  -0.0766  0.4346  0.7316
   6.480   1.2347   0.00880   0.00418  -0.0766  0.4345  0.7316
   6.490   1.2356   0.00881   0.00419  -0.0766  0.4344  0.7316
   6.500   1.2365   0.00881   0.00419  -0.0765  0.4343  0.7317
   6.510   1.2373   0.00882   0.00420  -0.0765  0.4342  0.7318
   6.520   1.2380   0.00883   0.00421  -0.0764  0.4341  0.7318
   6.530   1.2388   0.00884   0.00422  -0.0764  0.4339  0.7319
   6.540   1.2397   0.00884   0.00422  -0.0764  0.4339  0.7319
   6.550   1.2404   0.00885   0.00423  -0.0763  0.4337  0.7320
   6.560   1.2412   0.00886   0.00424  -0.0763  0.4336  0.7321
   6.570   1.2421   0.00886   0.00424  -0.0763  0.4335  0.7321
   6.580   1.2427   0.00887   0.00425  -0.0762  0.4333  0.7322
   6.590   1.2436   0.00888   0.00426  -0.0762  0.4333  0.7322
   6.600   1.2442   0.00889   0.00427  -0.0761  0.4331  0.7322
   6.610   1.2451   0.00890   0.00427  -0.0761  0.4330  0.7323
   6.620   1.2458   0.00891   0.00428  -0.0760  0.4329  0.7324
   6.630   1.2463   0.00892   0.00429  -0.0760  0.4326  0.7324
   6.650   1.2482   0.00893   0.00430  -0.0759  0.4326  0.7325
   6.660   1.2492   0.00893   0.00431  -0.0759  0.4325  0.7326
   6.670   1.2502   0.00893   0.00431  -0.0759  0.4324  0.7326
   6.680   1.2513   0.00894   0.00431  -0.0760  0.4323  0.7327
   6.690   1.2523   0.00894   0.00432  -0.0760  0.4322  0.7327
   6.700   1.2533   0.00894   0.00432  -0.0760  0.4322  0.7328
   6.710   1.2542   0.00895   0.00433  -0.0759  0.4321  0.7328
   6.720   1.2552   0.00895   0.00433  -0.0759  0.4320  0.7329
   6.730   1.2562   0.00895   0.00434  -0.0760  0.4318  0.7329
   6.740   1.2571   0.00896   0.00434  -0.0759  0.4319  0.7330
   6.750   1.2582   0.00896   0.00434  -0.0760  0.4316  0.7330
   6.760   1.2591   0.00897   0.00435  -0.0759  0.4316  0.7331
   6.770   1.2601   0.00897   0.00435  -0.0759  0.4314  0.7331
   6.780   1.2611   0.00897   0.00436  -0.0760  0.4312  0.7332
   6.790   1.2621   0.00898   0.00436  -0.0759  0.4312  0.7332
   6.800   1.2630   0.00898   0.00437  -0.0759  0.4312  0.7333
   6.810   1.2639   0.00899   0.00437  -0.0759  0.4311  0.7333
   6.820   1.2649   0.00899   0.00438  -0.0759  0.4309  0.7333
   6.830   1.2658   0.00900   0.00438  -0.0759  0.4309  0.7334
   6.840   1.2668   0.00900   0.00439  -0.0759  0.4308  0.7335
   6.850   1.2678   0.00900   0.00439  -0.0759  0.4308  0.7335
   6.860   1.2687   0.00901   0.00440  -0.0759  0.4305  0.7336
   6.870   1.2696   0.00901   0.00440  -0.0759  0.4305  0.7336
   6.880   1.2706   0.00902   0.00441  -0.0759  0.4302  0.7337
   6.890   1.2715   0.00902   0.00441  -0.0759  0.4303  0.7337
   6.900   1.2724   0.00903   0.00442  -0.0758  0.4300  0.7337
   6.910   1.2733   0.00903   0.00442  -0.0758  0.4299  0.7338
   6.920   1.2743   0.00904   0.00443  -0.0758  0.4299  0.7338
   6.930   1.2752   0.00904   0.00443  -0.0758  0.4296  0.7339
   6.940   1.2761   0.00905   0.00444  -0.0758  0.4297  0.7339
   6.950   1.2770   0.00905   0.00445  -0.0758  0.4295  0.7340
   6.960   1.2780   0.00906   0.00445  -0.0758  0.4296  0.7340
   6.970   1.2789   0.00906   0.00446  -0.0758  0.4292  0.7341
   6.980   1.2797   0.00907   0.00446  -0.0757  0.4290  0.7341
   6.990   1.2807   0.00907   0.00447  -0.0757  0.4290  0.7341
   7.000   1.2816   0.00908   0.00447  -0.0757  0.4289  0.7342
   7.010   1.2825   0.00908   0.00448  -0.0757  0.4288  0.7342
   7.020   1.2834   0.00909   0.00448  -0.0757  0.4288  0.7343
   7.030   1.2843   0.00910   0.00449  -0.0757  0.4285  0.7343
   7.040   1.2852   0.00910   0.00450  -0.0757  0.4285  0.7343
   7.050   1.2860   0.00911   0.00450  -0.0756  0.4281  0.7344
   7.060   1.2869   0.00911   0.00451  -0.0756  0.4281  0.7344
   7.070   1.2879   0.00912   0.00451  -0.0756  0.4281  0.7345
   7.080   1.2886   0.00913   0.00452  -0.0756  0.4278  0.7345
   7.090   1.2896   0.00913   0.00453  -0.0756  0.4278  0.7345
   7.100   1.2904   0.00914   0.00453  -0.0755  0.4276  0.7346
