  
       XFOIL         Version 6.94
  
 Calculated polar for: 1080                                            
  
 1 1 Reynolds number fixed          Mach number fixed         
  
 xtrf =   1.000 (top)        1.000 (bottom)  
 Mach =   0.000     Re =     2.000 e 6     Ncrit =   9.000
  
  alpha     CL        CD       CDp       CM    Top_Xtr Bot_Xtr
 ------- -------- --------- --------- -------- ------- -------
   6.000   1.0220   0.00736   0.00347  -0.0720  0.5777  0.7829
   6.010   1.0204   0.00740   0.00349  -0.0715  0.5762  0.7829
   6.020   1.0212   0.00740   0.00350  -0.0715  0.5761  0.7830
   6.030   1.0165   0.00748   0.00355  -0.0703  0.5693  0.7831
   6.040   1.0214   0.00743   0.00352  -0.0711  0.5747  0.7830
   6.050   1.0155   0.00753   0.00359  -0.0697  0.5675  0.7831
   6.060   1.0238   0.00743   0.00353  -0.0712  0.5754  0.7831
   6.070   1.0249   0.00744   0.00353  -0.0712  0.5755  0.7831
   6.080   1.0264   0.00743   0.00353  -0.0713  0.5757  0.7831
   6.090   1.0304   0.00739   0.00351  -0.0719  0.5774  0.7831
   6.100   1.0273   0.00745   0.00355  -0.0711  0.5748  0.7832
   6.120   1.0293   0.00746   0.00356  -0.0711  0.5748  0.7832
   6.140   1.0309   0.00747   0.00357  -0.0710  0.5734  0.7833
   6.150   1.0317   0.00747   0.00358  -0.0710  0.5730  0.7833
   6.160   1.0316   0.00749   0.00359  -0.0708  0.5715  0.7834
   6.170   1.0311   0.00751   0.00361  -0.0705  0.5699  0.7834
   6.180   1.0271   0.00759   0.00367  -0.0695  0.5656  0.7835
   6.190   1.0331   0.00752   0.00362  -0.0705  0.5700  0.7835
   6.200   1.0248   0.00767   0.00372  -0.0686  0.5607  0.7836
   6.210   1.0369   0.00750   0.00361  -0.0709  0.5720  0.7835
   6.220   1.0289   0.00764   0.00371  -0.0691  0.5626  0.7836
   6.230   1.0265   0.00770   0.00375  -0.0684  0.5598  0.7837
   6.240   1.0305   0.00765   0.00372  -0.0690  0.5622  0.7837
   6.250   1.0373   0.00757   0.00366  -0.0701  0.5687  0.7836
   6.260   1.0373   0.00758   0.00368  -0.0699  0.5681  0.7837
   6.270   1.0392   0.00757   0.00367  -0.0701  0.5686  0.7837
   6.280   1.0335   0.00768   0.00375  -0.0688  0.5614  0.7838
   6.290   1.0380   0.00763   0.00372  -0.0695  0.5660  0.7838
   6.310   1.0442   0.00757   0.00368  -0.0703  0.5694  0.7838
   6.320   1.0414   0.00764   0.00373  -0.0696  0.5671  0.7839
   6.330   1.0302   0.00785   0.00388  -0.0672  0.5526  0.7841
   6.340   1.0393   0.00771   0.00378  -0.0688  0.5612  0.7839
   6.350   1.0422   0.00768   0.00377  -0.0691  0.5631  0.7839
   6.360   1.0367   0.00780   0.00385  -0.0679  0.5566  0.7841
   6.370   1.0479   0.00763   0.00373  -0.0699  0.5679  0.7839
   6.380   1.0464   0.00767   0.00377  -0.0694  0.5651  0.7840
   6.390   1.0303   0.00799   0.00400  -0.0661  0.5464  0.7843
   6.400   1.0482   0.00768   0.00378  -0.0694  0.5648  0.7841
   6.410   1.0420   0.00781   0.00387  -0.0680  0.5577  0.7842
   6.420   1.0369   0.00792   0.00396  -0.0668  0.5513  0.7843
   6.430   1.0468   0.00776   0.00384  -0.0685  0.5603  0.7842
   6.440   1.0419   0.00787   0.00393  -0.0673  0.5535  0.7843
   6.450   1.0314   0.00811   0.00410  -0.0652  0.5421  0.7845
   6.460   1.0398   0.00796   0.00399  -0.0666  0.5506  0.7844
   6.470   1.0417   0.00794   0.00398  -0.0667  0.5513  0.7844
   6.480   1.0417   0.00797   0.00400  -0.0666  0.5505  0.7845
   6.490   1.0502   0.00783   0.00391  -0.0680  0.5588  0.7844
   6.500   1.0435   0.00798   0.00402  -0.0665  0.5505  0.7845
   6.510   1.0513   0.00785   0.00393  -0.0678  0.5568  0.7845
   6.520   1.0451   0.00799   0.00403  -0.0665  0.5496  0.7846
   6.530   1.0485   0.00795   0.00400  -0.0669  0.5519  0.7846
   6.540   1.0544   0.00786   0.00394  -0.0679  0.5573  0.7845
   6.550   1.0481   0.00800   0.00405  -0.0665  0.5499  0.7847
   6.560   1.0388   0.00822   0.00421  -0.0645  0.5380  0.7849
   6.570   1.0502   0.00801   0.00406  -0.0665  0.5501  0.7847
   6.580   1.0566   0.00791   0.00398  -0.0675  0.5548  0.7847
   6.590   1.0599   0.00787   0.00396  -0.0680  0.5588  0.7847
   6.600   1.0524   0.00803   0.00408  -0.0664  0.5489  0.7848
   6.610   1.0595   0.00792   0.00400  -0.0675  0.5549  0.7848
   6.620   1.0530   0.00807   0.00411  -0.0661  0.5470  0.7849
   6.630   1.0488   0.00818   0.00420  -0.0651  0.5425  0.7850
   6.640   1.0548   0.00808   0.00413  -0.0661  0.5468  0.7850
   6.650   1.0463   0.00828   0.00428  -0.0643  0.5370  0.7851
   6.660   1.0417   0.00841   0.00438  -0.0632  0.5310  0.7852
   6.670   1.0383   0.00852   0.00446  -0.0624  0.5271  0.7853
   6.680   1.0618   0.00803   0.00410  -0.0667  0.5513  0.7850
   6.690   1.0517   0.00827   0.00428  -0.0645  0.5386  0.7852
   6.700   1.0555   0.00821   0.00424  -0.0651  0.5426  0.7852
   6.710   1.0483   0.00839   0.00438  -0.0635  0.5336  0.7853
   6.720   1.0668   0.00803   0.00411  -0.0669  0.5520  0.7851
   6.730   1.0488   0.00844   0.00441  -0.0632  0.5315  0.7854
   6.740   1.0483   0.00847   0.00444  -0.0630  0.5299  0.7855
   6.750   1.0565   0.00832   0.00433  -0.0643  0.5376  0.7854
   6.760   1.0522   0.00844   0.00442  -0.0633  0.5323  0.7855
   6.770   1.0530   0.00844   0.00443  -0.0633  0.5322  0.7855
   6.780   1.0622   0.00827   0.00430  -0.0649  0.5411  0.7854
   6.790   1.0572   0.00840   0.00440  -0.0637  0.5352  0.7855
   6.800   1.0589   0.00839   0.00440  -0.0639  0.5357  0.7855
   6.810   1.0615   0.00836   0.00437  -0.0642  0.5371  0.7856
   6.820   1.0603   0.00841   0.00442  -0.0638  0.5353  0.7856
   6.830   1.0685   0.00826   0.00430  -0.0651  0.5431  0.7855
   6.840   1.0692   0.00827   0.00431  -0.0651  0.5430  0.7856
   6.850   1.0587   0.00853   0.00451  -0.0629  0.5298  0.7858
   6.860   1.0534   0.00868   0.00463  -0.0617  0.5237  0.7859
   6.870   1.0342   0.00918   0.00503  -0.0581  0.5037  0.7862
   6.880   1.0637   0.00849   0.00449  -0.0633  0.5325  0.7858
   6.890   1.0320   0.00930   0.00514  -0.0573  0.4993  0.7863
   6.900   1.0651   0.00851   0.00451  -0.0632  0.5318  0.7859
   6.910   1.0461   0.00900   0.00490  -0.0595  0.5117  0.7862
   6.920   1.0671   0.00852   0.00452  -0.0632  0.5319  0.7859
   6.930   1.0441   0.00911   0.00499  -0.0588  0.5078  0.7863
   6.940   1.0434   0.00915   0.00503  -0.0585  0.5060  0.7864
   6.950   1.0663   0.00862   0.00461  -0.0625  0.5284  0.7860
   6.960   1.0514   0.00901   0.00492  -0.0596  0.5122  0.7863
   6.970   1.0578   0.00888   0.00481  -0.0606  0.5179  0.7863
   6.980   1.0609   0.00883   0.00478  -0.0610  0.5200  0.7863
   6.990   1.0290   0.00969   0.00547  -0.0550  0.4878  0.7867
   7.000   1.0538   0.00907   0.00497  -0.0593  0.5112  0.7864
   7.010   1.0605   0.00893   0.00486  -0.0604  0.5166  0.7864
   7.020   1.0358   0.00960   0.00540  -0.0557  0.4914  0.7868
   7.030   1.0488   0.00928   0.00515  -0.0579  0.5036  0.7866
   7.040   1.0432   0.00946   0.00530  -0.0567  0.4966  0.7867
   7.050   1.0494   0.00933   0.00519  -0.0577  0.5022  0.7867
   7.060   1.0517   0.00930   0.00517  -0.0579  0.5035  0.7867
   7.070   1.0443   0.00953   0.00536  -0.0564  0.4954  0.7869
   7.080   1.0613   0.00911   0.00502  -0.0593  0.5113  0.7867
   7.090   1.0597   0.00918   0.00508  -0.0588  0.5086  0.7867
   7.100   1.0298   0.01002   0.00577  -0.0533  0.4792  0.7871
   7.110   1.0371   0.00985   0.00563  -0.0544  0.4852  0.7871
   7.120   1.0393   0.00982   0.00560  -0.0546  0.4865  0.7871
   7.130   1.0515   0.00952   0.00536  -0.0566  0.4967  0.7870
   7.140   1.0606   0.00930   0.00519  -0.0581  0.5048  0.7869
   7.150   1.0636   0.00926   0.00516  -0.0585  0.5068  0.7869
   7.160   1.0299   0.01022   0.00594  -0.0523  0.4740  0.7874
   7.170   1.0574   0.00948   0.00534  -0.0570  0.4989  0.7871
   7.180   1.0145   0.01074   0.00638  -0.0493  0.4586  0.7877
   7.200   1.0520   0.00972   0.00555  -0.0555  0.4913  0.7873
   7.210   1.0359   0.01021   0.00595  -0.0525  0.4755  0.7875
   7.220   1.0377   0.01019   0.00594  -0.0526  0.4763  0.7875
   7.230   1.0614   0.00956   0.00542  -0.0567  0.4976  0.7873
   7.240   1.0447   0.01005   0.00583  -0.0535  0.4809  0.7875
   7.250   1.0497   0.00994   0.00574  -0.0543  0.4849  0.7875
   7.260   1.0370   0.01034   0.00608  -0.0519  0.4725  0.7877
   7.270   1.0056   0.01133   0.00691  -0.0463  0.4444  0.7881
   7.280   1.0135   0.01112   0.00673  -0.0475  0.4504  0.7881
   7.290   1.0383   0.01040   0.00613  -0.0516  0.4715  0.7878
   7.300   1.0095   0.01132   0.00690  -0.0465  0.4456  0.7882
   7.310   1.0349   0.01057   0.00628  -0.0507  0.4666  0.7879
   7.320   1.0427   0.01038   0.00612  -0.0518  0.4728  0.7879
   7.330   0.9989   0.01177   0.00729  -0.0442  0.4337  0.7884
   7.340   1.0164   0.01124   0.00685  -0.0470  0.4483  0.7882
   7.350   1.0405   0.01054   0.00626  -0.0510  0.4686  0.7880
   7.360   1.0170   0.01130   0.00690  -0.0468  0.4473  0.7883
   7.370   1.0293   0.01095   0.00661  -0.0487  0.4570  0.7882
   7.380   1.0398   0.01067   0.00637  -0.0503  0.4653  0.7881
   7.390   1.0237   0.01120   0.00682  -0.0474  0.4509  0.7884
   7.400   1.0173   0.01143   0.00702  -0.0462  0.4446  0.7885
   7.410   1.0241   0.01125   0.00688  -0.0472  0.4497  0.7884
   7.420   0.9976   0.01215   0.00764  -0.0426  0.4263  0.7887
   7.430   1.0370   0.01093   0.00660  -0.0490  0.4591  0.7883
   7.440   1.0532   0.01047   0.00623  -0.0517  0.4727  0.7882
   7.450   0.9996   0.01219   0.00769  -0.0424  0.4257  0.7888
   7.460   1.0267   0.01135   0.00697  -0.0468  0.4482  0.7886
   7.470   1.0230   0.01151   0.00711  -0.0460  0.4442  0.7886
   7.480   1.0118   0.01191   0.00745  -0.0440  0.4339  0.7888
   7.490   0.9951   0.01250   0.00796  -0.0411  0.4189  0.7890
   7.500   1.0311   0.01136   0.00699  -0.0469  0.4488  0.7887
   7.510   1.0321   0.01136   0.00699  -0.0469  0.4490  0.7887
   7.520   1.0146   0.01196   0.00751  -0.0438  0.4335  0.7889
   7.530   1.0443   0.01106   0.00674  -0.0487  0.4579  0.7886
   7.540   1.0175   0.01195   0.00750  -0.0440  0.4345  0.7889
   7.550   1.0173   0.01199   0.00754  -0.0438  0.4337  0.7890
   7.560   0.9932   0.01284   0.00827  -0.0397  0.4122  0.7893
   7.570   0.9792   0.01337   0.00873  -0.0373  0.3989  0.7894
   7.580   1.0300   0.01169   0.00729  -0.0454  0.4419  0.7890
   7.590   0.9934   0.01295   0.00838  -0.0393  0.4105  0.7893
   7.600   1.0305   0.01174   0.00734  -0.0452  0.4410  0.7890
   7.610   1.0377   0.01155   0.00718  -0.0462  0.4465  0.7890
   7.620   1.0149   0.01233   0.00785  -0.0423  0.4265  0.7892
   7.630   1.0089   0.01258   0.00806  -0.0412  0.4205  0.7893
   7.640   1.0166   0.01235   0.00787  -0.0423  0.4265  0.7893
   7.650   0.9982   0.01302   0.00846  -0.0391  0.4105  0.7895
   7.670   1.0015   0.01299   0.00843  -0.0394  0.4117  0.7895
   7.680   1.0101   0.01273   0.00821  -0.0406  0.4184  0.7895
   7.690   1.0077   0.01286   0.00832  -0.0401  0.4154  0.7895
   7.700   0.9972   0.01326   0.00867  -0.0382  0.4052  0.7896
   7.710   1.0003   0.01320   0.00862  -0.0386  0.4075  0.7896
   7.720   1.0078   0.01297   0.00843  -0.0396  0.4133  0.7896
   7.730   0.9880   0.01371   0.00907  -0.0363  0.3954  0.7898
   7.740   0.9787   0.01410   0.00941  -0.0347  0.3863  0.7899
   7.750   1.0031   0.01326   0.00868  -0.0384  0.4070  0.7897
   7.760   1.0237   0.01258   0.00810  -0.0416  0.4237  0.7896
   7.770   0.9855   0.01398   0.00931  -0.0353  0.3905  0.7899
   7.780   0.9913   0.01380   0.00917  -0.0361  0.3947  0.7899
   7.790   1.0019   0.01346   0.00887  -0.0376  0.4029  0.7898
   7.800   1.0113   0.01317   0.00862  -0.0390  0.4109  0.7898
   7.820   0.9417   0.01586   0.01098  -0.0279  0.3468  0.7907
   7.830   0.9904   0.01405   0.00939  -0.0352  0.3906  0.7901
   7.840   1.0027   0.01364   0.00904  -0.0370  0.4004  0.7900
   7.850   0.9982   0.01384   0.00922  -0.0361  0.3958  0.7901
   7.860   0.9756   0.01471   0.00998  -0.0325  0.3752  0.7905
   7.870   0.9793   0.01462   0.00990  -0.0329  0.3775  0.7904
   7.880   1.0051   0.01371   0.00912  -0.0368  0.3999  0.7901
   7.890   1.0080   0.01365   0.00907  -0.0371  0.4017  0.7902
   7.900   0.9980   0.01405   0.00942  -0.0354  0.3925  0.7903
   7.910   1.0082   0.01372   0.00913  -0.0368  0.4004  0.7903
   7.920   0.9754   0.01498   0.01024  -0.0316  0.3709  0.7908
   7.930   0.9669   0.01536   0.01057  -0.0301  0.3623  0.7909
   7.940   0.9779   0.01498   0.01024  -0.0317  0.3718  0.7908
   7.950   0.9533   0.01599   0.01113  -0.0278  0.3484  0.7912
   7.960   0.9671   0.01548   0.01069  -0.0297  0.3599  0.7911
   7.970   1.0006   0.01424   0.00961  -0.0347  0.3894  0.7906
   7.980   1.0048   0.01413   0.00951  -0.0353  0.3929  0.7906
   7.990   0.9560   0.01606   0.01121  -0.0277  0.3479  0.7913
   8.000   1.0032   0.01427   0.00964  -0.0347  0.3896  0.7908
   8.010   0.9789   0.01524   0.01049  -0.0308  0.3674  0.7911
   8.020   0.9751   0.01544   0.01067  -0.0301  0.3634  0.7912
   8.030   0.9717   0.01561   0.01083  -0.0294  0.3593  0.7913
   8.040   0.9992   0.01459   0.00994  -0.0335  0.3835  0.7910
   8.050   1.0016   0.01454   0.00990  -0.0337  0.3847  0.7910
   8.060   0.9541   0.01647   0.01159  -0.0264  0.3410  0.7916
   8.070   0.9680   0.01595   0.01113  -0.0284  0.3537  0.7915
   8.080   0.9677   0.01601   0.01119  -0.0282  0.3525  0.7915
   8.100   0.9770   0.01572   0.01095  -0.0293  0.3592  0.7915
   8.110   0.9646   0.01627   0.01143  -0.0273  0.3474  0.7917
   8.120   0.9577   0.01660   0.01172  -0.0261  0.3399  0.7918
   8.130   0.9426   0.01729   0.01234  -0.0238  0.3257  0.7920
   8.140   0.9751   0.01598   0.01119  -0.0284  0.3553  0.7917
   8.150   0.9607   0.01662   0.01175  -0.0262  0.3406  0.7919
   8.160   0.9768   0.01600   0.01122  -0.0284  0.3555  0.7918
   8.170   0.9516   0.01710   0.01219  -0.0246  0.3308  0.7920
   8.180   0.9923   0.01547   0.01075  -0.0304  0.3673  0.7917
   8.190   0.9929   0.01549   0.01078  -0.0304  0.3673  0.7917
   8.200   1.0046   0.01508   0.01042  -0.0320  0.3771  0.7916
   8.210   0.9945   0.01552   0.01080  -0.0304  0.3673  0.7917
   8.220   0.9648   0.01678   0.01192  -0.0258  0.3395  0.7921
   8.230   0.9758   0.01637   0.01156  -0.0273  0.3490  0.7920
   8.240   0.9612   0.01704   0.01215  -0.0250  0.3354  0.7922
   8.250   0.9690   0.01675   0.01191  -0.0260  0.3412  0.7922
   8.260   0.9523   0.01751   0.01258  -0.0235  0.3253  0.7924
   8.270   0.9649   0.01702   0.01215  -0.0252  0.3367  0.7923
   8.280   0.9803   0.01642   0.01162  -0.0273  0.3497  0.7922
   8.290   0.9521   0.01767   0.01273  -0.0231  0.3224  0.7925
   8.300   0.9727   0.01683   0.01199  -0.0259  0.3414  0.7923
   8.310   0.9691   0.01703   0.01218  -0.0252  0.3377  0.7924
   8.320   0.9547   0.01771   0.01277  -0.0230  0.3229  0.7926
   8.330   0.9484   0.01804   0.01306  -0.0220  0.3168  0.7927
   8.340   0.9622   0.01748   0.01258  -0.0238  0.3288  0.7926
   8.350   0.9780   0.01685   0.01203  -0.0260  0.3429  0.7925
   8.360   0.9339   0.01884   0.01379  -0.0196  0.3000  0.7929
   8.370   0.9676   0.01739   0.01251  -0.0242  0.3318  0.7927
   8.380   0.9628   0.01765   0.01274  -0.0234  0.3269  0.7927
   8.390   0.9528   0.01815   0.01318  -0.0219  0.3168  0.7929
   8.400   0.9420   0.01869   0.01367  -0.0202  0.3050  0.7930
   8.410   0.9573   0.01805   0.01310  -0.0222  0.3193  0.7929
   8.420   0.9549   0.01820   0.01324  -0.0218  0.3167  0.7930
   8.430   0.9643   0.01784   0.01292  -0.0230  0.3245  0.7929
   8.440   0.9718   0.01756   0.01268  -0.0239  0.3306  0.7929
   8.450   0.9460   0.01877   0.01375  -0.0201  0.3052  0.7931
   8.460   0.9394   0.01912   0.01407  -0.0191  0.2983  0.7933
   8.470   0.9850   0.01714   0.01232  -0.0254  0.3410  0.7929
   8.480   0.9560   0.01847   0.01350  -0.0212  0.3130  0.7932
   8.490   0.9791   0.01749   0.01264  -0.0243  0.3342  0.7930
   8.500   0.9588   0.01845   0.01349  -0.0213  0.3143  0.7932
   8.510   0.9566   0.01860   0.01362  -0.0209  0.3112  0.7933
   8.520   0.9519   0.01886   0.01386  -0.0201  0.3061  0.7934
   8.530   0.9610   0.01850   0.01354  -0.0212  0.3144  0.7933
   8.540   0.9570   0.01873   0.01375  -0.0205  0.3096  0.7934
   8.550   0.9468   0.01926   0.01423  -0.0190  0.2992  0.7935
   8.560   0.9339   0.01992   0.01481  -0.0171  0.2846  0.7937
   8.570   0.9679   0.01840   0.01347  -0.0217  0.3182  0.7934
   8.580   0.9567   0.01896   0.01396  -0.0200  0.3065  0.7935
   8.590   0.9755   0.01816   0.01326  -0.0225  0.3240  0.7934
   8.600   0.9505   0.01935   0.01432  -0.0189  0.2993  0.7937
   8.610   0.9711   0.01846   0.01354  -0.0216  0.3185  0.7935
   8.620   0.9608   0.01897   0.01399  -0.0201  0.3079  0.7936
   8.630   0.9516   0.01946   0.01443  -0.0187  0.2982  0.7938
   8.640   0.9226   0.02091   0.01571  -0.0146  0.2670  0.7940
   8.650   0.9548   0.01942   0.01440  -0.0189  0.2997  0.7938
   8.660   0.9672   0.01889   0.01394  -0.0204  0.3108  0.7938
