  
       XFOIL         Version 6.94
  
 Calculated polar for: 1080                                            
  
 1 1 Reynolds number fixed          Mach number fixed         
  
 xtrf =   1.000 (top)        1.000 (bottom)  
 Mach =   0.000     Re =     2.000 e 6     Ncrit =   9.000
  
  alpha     CL        CD       CDp       CM    Top_Xtr Bot_Xtr
 ------- -------- --------- --------- -------- ------- -------
   6.010   1.2416   0.01459   0.00872  -0.1239  0.2773  0.5022
   6.020   1.2377   0.01485   0.00896  -0.1234  0.2737  0.5024
   6.030   1.2327   0.01519   0.00928  -0.1228  0.2697  0.5020
   6.040   1.2422   0.01474   0.00886  -0.1236  0.2764  0.5026
   6.050   1.2085   0.01686   0.01083  -0.1203  0.2473  0.5015
   6.060   1.2213   0.01614   0.01017  -0.1214  0.2581  0.5020
   6.070   1.2166   0.01651   0.01051  -0.1209  0.2535  0.5021
   6.080   1.2404   0.01509   0.00920  -0.1230  0.2726  0.5029
   6.090   1.2421   0.01506   0.00918  -0.1231  0.2734  0.5031
   6.100   1.2554   0.01443   0.00859  -0.1244  0.2824  0.5036
   6.110   1.2083   0.01730   0.01124  -0.1198  0.2435  0.5023
   6.120   1.2491   0.01487   0.00900  -0.1235  0.2775  0.5037
   6.130   1.2464   0.01508   0.00921  -0.1232  0.2748  0.5037
   6.140   1.2549   0.01468   0.00884  -0.1239  0.2801  0.5042
   6.150   1.2372   0.01580   0.00988  -0.1221  0.2662  0.5036
   6.160   1.2368   0.01590   0.00998  -0.1220  0.2651  0.5036
   6.170   1.2389   0.01584   0.00993  -0.1221  0.2664  0.5039
   6.180   1.2285   0.01658   0.01061  -0.1211  0.2565  0.5038
   6.190   1.2336   0.01633   0.01039  -0.1214  0.2609  0.5039
   6.200   1.2401   0.01599   0.01007  -0.1220  0.2654  0.5044
   6.210   1.2241   0.01706   0.01106  -0.1204  0.2509  0.5038
   6.220   1.2415   0.01605   0.01013  -0.1219  0.2653  0.5045
   6.230   1.2226   0.01729   0.01127  -0.1200  0.2481  0.5041
   6.240   1.2365   0.01652   0.01057  -0.1213  0.2602  0.5045
   6.250   1.2285   0.01708   0.01109  -0.1204  0.2526  0.5045
   6.260   1.2342   0.01681   0.01084  -0.1209  0.2563  0.5046
   6.270   1.2211   0.01766   0.01162  -0.1195  0.2448  0.5043
   6.280   1.2314   0.01712   0.01113  -0.1204  0.2531  0.5047
   6.290   1.2471   0.01623   0.01031  -0.1218  0.2657  0.5052
   6.300   1.2318   0.01723   0.01124  -0.1203  0.2522  0.5049
   6.310   1.2415   0.01672   0.01078  -0.1211  0.2601  0.5052
   6.320   1.2330   0.01730   0.01131  -0.1202  0.2520  0.5050
   6.330   1.2231   0.01795   0.01190  -0.1191  0.2425  0.5049
   6.340   1.2490   0.01647   0.01056  -0.1216  0.2640  0.5061
   6.350   1.2312   0.01762   0.01160  -0.1197  0.2482  0.5053
   6.360   1.2511   0.01649   0.01058  -0.1216  0.2646  0.5063
   6.370   1.2417   0.01713   0.01117  -0.1206  0.2559  0.5058
   6.380   1.2267   0.01807   0.01203  -0.1190  0.2428  0.5054
   6.390   1.2169   0.01870   0.01260  -0.1179  0.2336  0.5054
   6.400   1.2287   0.01810   0.01206  -0.1190  0.2432  0.5059
   6.410   1.2329   0.01793   0.01191  -0.1193  0.2461  0.5062
   6.420   1.2333   0.01797   0.01195  -0.1193  0.2459  0.5063
   6.430   1.2410   0.01759   0.01162  -0.1199  0.2520  0.5067
   6.440   1.2152   0.01911   0.01299  -0.1172  0.2295  0.5057
   6.450   1.2413   0.01771   0.01173  -0.1198  0.2509  0.5073
   6.460   1.2004   0.02005   0.01385  -0.1154  0.2161  0.5057
   6.470   1.2369   0.01809   0.01208  -0.1191  0.2460  0.5072
   6.480   1.2129   0.01950   0.01336  -0.1165  0.2251  0.5064
   6.490   1.2458   0.01772   0.01176  -0.1198  0.2526  0.5078
   6.500   1.2586   0.01704   0.01114  -0.1210  0.2624  0.5083
   6.510   1.2370   0.01836   0.01234  -0.1187  0.2439  0.5077
   6.520   1.2570   0.01728   0.01136  -0.1207  0.2601  0.5085
   6.530   1.2421   0.01820   0.01220  -0.1191  0.2467  0.5080
   6.540   1.2412   0.01832   0.01232  -0.1189  0.2456  0.5082
   6.550   1.2487   0.01796   0.01200  -0.1196  0.2511  0.5086
   6.560   1.2244   0.01938   0.01328  -0.1169  0.2305  0.5079
   6.570   1.2302   0.01912   0.01305  -0.1174  0.2344  0.5081
   6.580   1.1936   0.02118   0.01492  -0.1135  0.2031  0.5070
   6.590   1.2380   0.01882   0.01279  -0.1181  0.2398  0.5088
   6.600   1.2221   0.01976   0.01364  -0.1163  0.2261  0.5081
   6.610   1.2655   0.01739   0.01151  -0.1207  0.2617  0.5099
   6.620   1.2405   0.01888   0.01285  -0.1180  0.2401  0.5093
   6.630   1.2230   0.01990   0.01378  -0.1161  0.2251  0.5086
   6.640   1.2714   0.01725   0.01139  -0.1210  0.2645  0.5106
   6.650   1.2632   0.01780   0.01189  -0.1201  0.2571  0.5104
   6.660   1.2437   0.01896   0.01294  -0.1179  0.2404  0.5098
   6.670   1.2437   0.01902   0.01300  -0.1178  0.2400  0.5098
   6.680   1.2263   0.02004   0.01393  -0.1159  0.2250  0.5094
   6.690   1.2540   0.01858   0.01262  -0.1187  0.2473  0.5104
   6.700   1.2423   0.01929   0.01326  -0.1174  0.2377  0.5102
   6.710   1.2335   0.01984   0.01376  -0.1164  0.2297  0.5099
   6.720   1.2428   0.01940   0.01336  -0.1172  0.2369  0.5106
   6.730   1.2291   0.02020   0.01409  -0.1157  0.2246  0.5101
   6.740   1.2291   0.02026   0.01415  -0.1156  0.2242  0.5101
   6.750   1.2105   0.02134   0.01512  -0.1136  0.2081  0.5096
   6.760   1.2363   0.02000   0.01392  -0.1162  0.2293  0.5107
   6.770   1.2295   0.02043   0.01431  -0.1153  0.2232  0.5105
   6.780   1.2459   0.01961   0.01358  -0.1170  0.2360  0.5115
   6.790   1.2250   0.02081   0.01466  -0.1147  0.2178  0.5107
   6.800   1.2347   0.02034   0.01424  -0.1156  0.2252  0.5110
   6.810   1.2399   0.02012   0.01405  -0.1160  0.2295  0.5115
   6.820   1.2343   0.02049   0.01438  -0.1153  0.2240  0.5114
   6.830   1.2272   0.02094   0.01479  -0.1145  0.2175  0.5113
   6.840   1.2402   0.02030   0.01422  -0.1157  0.2278  0.5119
   6.850   1.2334   0.02073   0.01461  -0.1149  0.2220  0.5116
   6.860   1.2131   0.02189   0.01566  -0.1127  0.2039  0.5114
   6.870   1.2303   0.02103   0.01489  -0.1144  0.2179  0.5120
   6.880   1.2352   0.02082   0.01470  -0.1148  0.2218  0.5122
   6.890   1.2322   0.02105   0.01491  -0.1144  0.2184  0.5121
   6.900   1.2116   0.02222   0.01597  -0.1122  0.2002  0.5112
   6.910   1.2134   0.02219   0.01595  -0.1123  0.2015  0.5119
   6.920   1.2135   0.02225   0.01600  -0.1122  0.2008  0.5116
   6.930   1.2187   0.02203   0.01581  -0.1126  0.2045  0.5123
   6.940   1.2305   0.02146   0.01530  -0.1137  0.2144  0.5127
   6.950   1.1977   0.02330   0.01697  -0.1103  0.1852  0.5114
   6.960   1.2231   0.02198   0.01577  -0.1128  0.2068  0.5125
   6.970   1.2403   0.02112   0.01500  -0.1144  0.2210  0.5136
   6.980   1.2097   0.02284   0.01656  -0.1112  0.1944  0.5125
   6.990   1.2162   0.02254   0.01629  -0.1118  0.1992  0.5127
   7.000   1.2332   0.02169   0.01553  -0.1134  0.2132  0.5136
   7.010   1.2409   0.02133   0.01522  -0.1141  0.2191  0.5139
   7.020   1.2207   0.02249   0.01626  -0.1119  0.2016  0.5133
   7.030   1.2525   0.02084   0.01477  -0.1151  0.2276  0.5146
   7.040   1.2308   0.02207   0.01588  -0.1128  0.2092  0.5141
   7.050   1.2463   0.02129   0.01519  -0.1143  0.2218  0.5147
   7.080   1.2224   0.02278   0.01654  -0.1115  0.1996  0.5138
   7.090   1.2213   0.02291   0.01666  -0.1113  0.1980  0.5142
   7.100   1.1996   0.02415   0.01778  -0.1090  0.1779  0.5134
   7.110   1.2374   0.02215   0.01598  -0.1127  0.2105  0.5151
   7.130   1.2278   0.02280   0.01658  -0.1116  0.2018  0.5147
   7.150   1.2099   0.02391   0.01758  -0.1095  0.1843  0.5145
   7.160   1.2062   0.02418   0.01782  -0.1091  0.1804  0.5145
   7.170   1.2427   0.02224   0.01609  -0.1127  0.2117  0.5156
   7.180   1.2300   0.02300   0.01678  -0.1113  0.2007  0.5154
   7.200   1.2121   0.02410   0.01777  -0.1093  0.1835  0.5151
   7.210   1.2339   0.02298   0.01677  -0.1114  0.2026  0.5161
   7.220   1.1941   0.02524   0.01881  -0.1073  0.1660  0.5147
   7.230   1.2290   0.02337   0.01713  -0.1107  0.1969  0.5159
   7.240   1.2065   0.02468   0.01831  -0.1083  0.1763  0.5153
   7.250   1.1200   0.02977   0.02290  -0.1001  0.0844  0.5120
   7.260   1.2238   0.02385   0.01756  -0.1099  0.1904  0.5163
   7.270   1.1886   0.02588   0.01939  -0.1063  0.1577  0.5150
   7.280   1.2142   0.02451   0.01817  -0.1087  0.1808  0.5160
   7.290   1.1904   0.02591   0.01943  -0.1063  0.1582  0.5152
   7.300   1.1948   0.02572   0.01927  -0.1066  0.1618  0.5155
   7.310   1.2134   0.02475   0.01839  -0.1084  0.1784  0.5164
   7.320   1.1878   0.02625   0.01975  -0.1058  0.1539  0.5155
   7.330   1.1732   0.02716   0.02058  -0.1043  0.1387  0.5152
   7.340   1.2227   0.02443   0.01811  -0.1090  0.1847  0.5169
   7.360   1.1953   0.02609   0.01962  -0.1061  0.1585  0.5162
   7.370   1.1699   0.02762   0.02100  -0.1036  0.1331  0.5154
   7.380   1.1734   0.02749   0.02089  -0.1039  0.1360  0.5158
   7.390   1.2121   0.02535   0.01896  -0.1075  0.1725  0.5171
   7.400   1.2247   0.02470   0.01838  -0.1086  0.1835  0.5174
   7.410   1.2292   0.02451   0.01821  -0.1090  0.1868  0.5177
   7.420   1.1815   0.02728   0.02072  -0.1043  0.1416  0.5164
   7.430   1.2142   0.02549   0.01910  -0.1073  0.1721  0.5174
   7.440   1.1623   0.02854   0.02186  -0.1023  0.1200  0.5160
