  
       XFOIL         Version 6.94
  
 Calculated polar for: 1080                                            
  
 1 1 Reynolds number fixed          Mach number fixed         
  
 xtrf =   1.000 (top)        1.000 (bottom)  
 Mach =   0.000     Re =     2.000 e 6     Ncrit =   9.000
  
  alpha     CL        CD       CDp       CM    Top_Xtr Bot_Xtr
 ------- -------- --------- --------- -------- ------- -------
   6.000   1.3584   0.00963   0.00471  -0.1222  0.3398  0.7963
   6.010   1.3587   0.00967   0.00474  -0.1221  0.3385  0.7963
   6.030   1.3629   0.00959   0.00469  -0.1225  0.3423  0.7968
   6.040   1.3601   0.00974   0.00480  -0.1218  0.3357  0.7971
   6.050   1.3640   0.00964   0.00473  -0.1223  0.3402  0.7971
   6.060   1.3619   0.00976   0.00482  -0.1217  0.3349  0.7975
   6.070   1.3634   0.00975   0.00481  -0.1218  0.3360  0.7977
   6.080   1.3661   0.00969   0.00477  -0.1221  0.3386  0.7978
   6.090   1.3674   0.00968   0.00477  -0.1222  0.3390  0.7980
   6.100   1.3694   0.00965   0.00475  -0.1223  0.3406  0.7981
   6.110   1.3678   0.00976   0.00483  -0.1219  0.3363  0.7982
   6.120   1.3685   0.00978   0.00484  -0.1218  0.3355  0.7983
   6.130   1.3666   0.00989   0.00493  -0.1213  0.3302  0.7986
   6.140   1.3711   0.00976   0.00484  -0.1219  0.3367  0.7989
   6.150   1.3694   0.00987   0.00492  -0.1214  0.3312  0.7990
   6.160   1.3715   0.00984   0.00489  -0.1216  0.3330  0.7992
   6.170   1.3718   0.00987   0.00492  -0.1215  0.3317  0.7993
   6.180   1.3724   0.00989   0.00494  -0.1214  0.3310  0.7996
   6.190   1.3756   0.00981   0.00488  -0.1217  0.3350  0.7997
   6.200   1.3752   0.00987   0.00493  -0.1215  0.3322  0.7998
   6.210   1.3754   0.00991   0.00496  -0.1213  0.3308  0.8001
   6.230   1.3787   0.00987   0.00493  -0.1215  0.3329  0.8005
   6.240   1.3753   0.01004   0.00506  -0.1208  0.3254  0.8007
   6.250   1.3797   0.00992   0.00498  -0.1213  0.3310  0.8010
   6.260   1.3810   0.00992   0.00497  -0.1214  0.3314  0.8010
   6.270   1.3821   0.00992   0.00498  -0.1214  0.3315  0.8012
   6.280   1.3801   0.01004   0.00506  -0.1209  0.3266  0.8014
   6.290   1.3827   0.00998   0.00503  -0.1211  0.3295  0.8016
   6.300   1.3813   0.01008   0.00509  -0.1207  0.3250  0.8018
   6.310   1.3829   0.01006   0.00509  -0.1208  0.3260  0.8018
   6.320   1.3849   0.01003   0.00507  -0.1210  0.3279  0.8021
   6.330   1.3845   0.01009   0.00511  -0.1207  0.3252  0.8023
   6.340   1.3859   0.01008   0.00510  -0.1208  0.3260  0.8026
   6.350   1.3865   0.01010   0.00512  -0.1207  0.3251  0.8026
   6.360   1.3871   0.01012   0.00514  -0.1206  0.3243  0.8029
   6.370   1.3886   0.01011   0.00513  -0.1207  0.3252  0.8031
   6.380   1.3872   0.01020   0.00520  -0.1203  0.3216  0.8031
   6.390   1.3915   0.01008   0.00512  -0.1208  0.3268  0.8034
   6.400   1.3915   0.01013   0.00515  -0.1207  0.3248  0.8036
   6.410   1.3908   0.01019   0.00520  -0.1204  0.3222  0.8037
   6.420   1.3924   0.01018   0.00519  -0.1205  0.3230  0.8040
   6.430   1.3947   0.01014   0.00517  -0.1207  0.3250  0.8041
   6.440   1.3939   0.01021   0.00522  -0.1204  0.3223  0.8043
   6.450   1.3938   0.01025   0.00525  -0.1202  0.3210  0.8045
   6.460   1.3916   0.01037   0.00534  -0.1196  0.3154  0.8048
   6.470   1.3925   0.01038   0.00535  -0.1196  0.3152  0.8048
   6.480   1.3945   0.01035   0.00533  -0.1197  0.3168  0.8051
   6.490   1.3950   0.01038   0.00535  -0.1196  0.3160  0.8052
   6.500   1.4001   0.01024   0.00525  -0.1203  0.3223  0.8055
   6.510   1.3988   0.01032   0.00532  -0.1199  0.3189  0.8055
   6.520   1.4006   0.01030   0.00530  -0.1201  0.3206  0.8056
   6.530   1.3999   0.01037   0.00535  -0.1198  0.3173  0.8058
   6.540   1.4004   0.01039   0.00537  -0.1197  0.3165  0.8061
   6.550   1.4028   0.01035   0.00534  -0.1199  0.3189  0.8061
   6.560   1.3990   0.01052   0.00547  -0.1190  0.3120  0.8064
   6.570   1.4032   0.01041   0.00539  -0.1196  0.3161  0.8066
   6.580   1.4042   0.01042   0.00540  -0.1196  0.3160  0.8068
   6.590   1.4048   0.01044   0.00541  -0.1195  0.3155  0.8068
   6.600   1.4029   0.01054   0.00549  -0.1190  0.3119  0.8071
   6.610   1.4074   0.01043   0.00541  -0.1196  0.3164  0.8071
   6.620   1.4077   0.01046   0.00543  -0.1195  0.3153  0.8073
   6.630   1.4050   0.01059   0.00553  -0.1188  0.3102  0.8076
   6.640   1.4061   0.01059   0.00553  -0.1188  0.3104  0.8078
   6.650   1.4074   0.01059   0.00553  -0.1189  0.3109  0.8078
   6.660   1.4022   0.01080   0.00569  -0.1178  0.3022  0.8080
   6.700   1.4002   0.01099   0.00583  -0.1167  0.2957  0.8086
   6.710   1.4003   0.01101   0.00586  -0.1165  0.2945  0.8088
   6.720   1.4010   0.01102   0.00587  -0.1165  0.2943  0.8089
   6.730   1.4097   0.01081   0.00572  -0.1178  0.3034  0.8092
   6.740   1.3971   0.01117   0.00598  -0.1154  0.2889  0.8094
   6.750   1.4065   0.01096   0.00583  -0.1169  0.2975  0.8094
   6.760   1.4100   0.01090   0.00579  -0.1173  0.2999  0.8096
   6.770   1.4067   0.01102   0.00587  -0.1165  0.2959  0.8098
   6.780   1.3863   0.01155   0.00628  -0.1128  0.2745  0.8102
   6.790   1.4003   0.01122   0.00603  -0.1150  0.2878  0.8102
   6.800   1.4050   0.01113   0.00597  -0.1157  0.2910  0.8105
   6.810   1.3952   0.01141   0.00618  -0.1138  0.2811  0.8107
   6.820   1.4120   0.01102   0.00589  -0.1165  0.2968  0.8105
   6.830   1.4086   0.01113   0.00597  -0.1157  0.2920  0.8108
   6.840   1.4087   0.01115   0.00599  -0.1156  0.2913  0.8110
   6.850   1.4087   0.01117   0.00601  -0.1154  0.2905  0.8112
   6.860   1.4026   0.01136   0.00615  -0.1141  0.2835  0.8113
   6.870   1.3959   0.01156   0.00631  -0.1128  0.2763  0.8116
   6.880   1.3995   0.01150   0.00626  -0.1132  0.2792  0.8118
   6.890   1.3914   0.01174   0.00645  -0.1116  0.2707  0.8118
   6.900   1.4071   0.01136   0.00616  -0.1142  0.2845  0.8119
   6.910   1.4144   0.01120   0.00605  -0.1153  0.2908  0.8120
   6.920   1.3990   0.01162   0.00637  -0.1124  0.2752  0.8125
   6.930   1.3957   0.01174   0.00647  -0.1116  0.2717  0.8129
   6.940   1.4187   0.01117   0.00604  -0.1155  0.2925  0.8128
   6.950   1.4016   0.01164   0.00639  -0.1123  0.2753  0.8131
   6.960   1.4042   0.01160   0.00637  -0.1125  0.2769  0.8133
   6.970   1.3916   0.01197   0.00666  -0.1102  0.2649  0.8135
   6.980   1.4090   0.01154   0.00632  -0.1130  0.2804  0.8134
   6.990   1.3925   0.01201   0.00669  -0.1100  0.2640  0.8140
   7.000   1.4005   0.01182   0.00655  -0.1112  0.2705  0.8141
   7.010   1.4122   0.01154   0.00633  -0.1130  0.2811  0.8142
   7.020   1.4083   0.01167   0.00643  -0.1122  0.2760  0.8143
   7.030   1.3946   0.01207   0.00675  -0.1096  0.2627  0.8149
   7.040   1.4149   0.01155   0.00635  -0.1129  0.2811  0.8148
   7.050   1.3895   0.01228   0.00692  -0.1084  0.2571  0.8153
   7.060   1.3909   0.01227   0.00692  -0.1085  0.2576  0.8153
   7.070   1.3885   0.01237   0.00700  -0.1079  0.2543  0.8157
   7.080   1.3985   0.01212   0.00680  -0.1094  0.2624  0.8156
   7.090   1.4068   0.01192   0.00665  -0.1106  0.2691  0.8158
   7.100   1.3984   0.01219   0.00686  -0.1090  0.2607  0.8160
   7.110   1.3993   0.01219   0.00687  -0.1090  0.2609  0.8161
   7.120   1.3912   0.01245   0.00708  -0.1075  0.2531  0.8167
   7.130   1.3992   0.01225   0.00692  -0.1086  0.2595  0.8167
   7.140   1.3927   0.01247   0.00710  -0.1074  0.2530  0.8170
   7.150   1.4037   0.01219   0.00688  -0.1090  0.2619  0.8170
   7.160   1.3884   0.01265   0.00725  -0.1063  0.2482  0.8175
   7.170   1.3935   0.01254   0.00716  -0.1070  0.2517  0.8176
   7.180   1.3980   0.01245   0.00709  -0.1076  0.2549  0.8178
   7.190   1.3917   0.01266   0.00726  -0.1063  0.2491  0.8182
   7.200   1.4061   0.01228   0.00696  -0.1086  0.2604  0.8182
   7.210   1.4038   0.01238   0.00704  -0.1080  0.2582  0.8185
   7.220   1.4121   0.01218   0.00688  -0.1092  0.2647  0.8186
   7.230   1.3914   0.01279   0.00738  -0.1056  0.2460  0.8189
   7.240   1.3991   0.01261   0.00723  -0.1067  0.2518  0.8191
   7.250   1.4026   0.01254   0.00718  -0.1071  0.2539  0.8194
   7.260   1.3960   0.01276   0.00736  -0.1058  0.2479  0.8195
   7.290   1.4063   0.01256   0.00721  -0.1070  0.2544  0.8203
   7.300   1.3929   0.01298   0.00756  -0.1047  0.2434  0.8204
   7.310   1.3723   0.01363   0.00812  -0.1013  0.2271  0.8206
   7.320   1.3934   0.01303   0.00761  -0.1044  0.2425  0.8208
   7.330   1.4011   0.01283   0.00745  -0.1055  0.2477  0.8211
   7.340   1.3772   0.01358   0.00808  -0.1016  0.2294  0.8214
   7.350   1.3912   0.01319   0.00775  -0.1036  0.2387  0.8214
   7.360   1.3966   0.01306   0.00765  -0.1042  0.2426  0.8218
   7.370   1.3797   0.01360   0.00811  -0.1015  0.2296  0.8220
   7.380   1.3955   0.01315   0.00774  -0.1038  0.2404  0.8226
   7.390   1.3944   0.01322   0.00780  -0.1034  0.2389  0.8227
   7.400   1.4017   0.01304   0.00764  -0.1044  0.2441  0.8228
   7.410   1.3943   0.01329   0.00786  -0.1031  0.2378  0.8231
   7.420   1.3898   0.01346   0.00801  -0.1022  0.2341  0.8233
   7.430   1.3971   0.01327   0.00785  -0.1032  0.2387  0.8234
   7.440   1.3850   0.01367   0.00820  -0.1012  0.2298  0.8238
   7.450   1.3935   0.01345   0.00801  -0.1023  0.2355  0.8243
   7.460   1.3805   0.01389   0.00839  -0.1002  0.2255  0.8243
   7.470   1.4007   0.01330   0.00788  -0.1031  0.2392  0.8246
   7.480   1.3734   0.01419   0.00867  -0.0988  0.2201  0.8250
   7.490   1.3605   0.01466   0.00910  -0.0969  0.2116  0.8252
   7.500   1.3830   0.01395   0.00846  -0.0999  0.2254  0.8254
   7.510   1.3920   0.01370   0.00824  -0.1011  0.2311  0.8258
   7.520   1.3836   0.01400   0.00851  -0.0997  0.2249  0.8259
   7.530   1.3890   0.01386   0.00840  -0.1004  0.2284  0.8262
   7.540   1.3943   0.01373   0.00828  -0.1010  0.2312  0.8265
   7.550   1.3832   0.01412   0.00863  -0.0992  0.2235  0.8267
   7.560   1.4076   0.01339   0.00799  -0.1027  0.2395  0.8270
   7.570   1.3655   0.01481   0.00926  -0.0964  0.2118  0.8275
   7.580   1.3789   0.01438   0.00887  -0.0981  0.2195  0.8275
   7.590   1.3643   0.01493   0.00938  -0.0960  0.2105  0.8277
   7.600   1.3670   0.01487   0.00933  -0.0962  0.2117  0.8282
   7.610   1.3719   0.01474   0.00920  -0.0967  0.2144  0.8283
   7.620   1.3704   0.01483   0.00929  -0.0964  0.2130  0.8288
   7.630   1.3847   0.01437   0.00888  -0.0982  0.2214  0.8288
   7.640   1.3590   0.01535   0.00978  -0.0946  0.2060  0.8295
   7.650   1.3883   0.01433   0.00884  -0.0985  0.2228  0.8294
   7.660   1.3759   0.01480   0.00927  -0.0966  0.2151  0.8298
   7.670   1.4031   0.01391   0.00848  -0.1003  0.2312  0.8295
   7.680   1.3857   0.01453   0.00903  -0.0976  0.2199  0.8301
   7.690   1.4021   0.01402   0.00858  -0.0999  0.2299  0.8302
   7.700   1.3893   0.01448   0.00900  -0.0979  0.2217  0.8305
   7.710   1.4030   0.01406   0.00862  -0.0997  0.2296  0.8306
   7.730   1.3732   0.01519   0.00966  -0.0953  0.2110  0.8315
   7.740   1.3914   0.01456   0.00908  -0.0976  0.2215  0.8316
   7.750   1.3728   0.01529   0.00976  -0.0950  0.2103  0.8317
   7.760   1.3680   0.01552   0.00998  -0.0942  0.2077  0.8324
   7.770   1.3816   0.01504   0.00953  -0.0958  0.2147  0.8323
   7.790   1.3732   0.01545   0.00992  -0.0945  0.2095  0.8328
   7.800   1.3585   0.01612   0.01056  -0.0926  0.2021  0.8336
   7.810   1.3680   0.01575   0.01022  -0.0936  0.2063  0.8335
   7.820   1.3850   0.01511   0.00962  -0.0956  0.2153  0.8336
   7.830   1.3778   0.01544   0.00993  -0.0946  0.2107  0.8340
   7.840   1.3699   0.01581   0.01029  -0.0935  0.2066  0.8345
   7.850   1.3972   0.01479   0.00933  -0.0968  0.2210  0.8341
   7.860   1.3881   0.01517   0.00968  -0.0955  0.2157  0.8341
   7.870   1.3979   0.01484   0.00939  -0.0967  0.2207  0.8346
   7.880   1.3895   0.01520   0.00972  -0.0954  0.2158  0.8350
   7.890   1.3481   0.01715   0.01159  -0.0907  0.1952  0.8362
   7.900   1.3738   0.01593   0.01043  -0.0932  0.2072  0.8359
   7.910   1.3631   0.01648   0.01095  -0.0920  0.2019  0.8364
   7.920   1.3493   0.01727   0.01172  -0.0905  0.1953  0.8371
   7.930   1.3790   0.01585   0.01036  -0.0935  0.2092  0.8365
   7.940   1.3572   0.01696   0.01142  -0.0911  0.1982  0.8374
   7.950   1.3878   0.01558   0.01010  -0.0943  0.2129  0.8367
   7.960   1.3430   0.01794   0.01239  -0.0897  0.1913  0.8384
   7.970   1.3789   0.01606   0.01056  -0.0930  0.2083  0.8377
   7.980   1.3700   0.01653   0.01103  -0.0920  0.2035  0.8381
   7.990   1.3586   0.01720   0.01167  -0.0907  0.1980  0.8385
   8.000   1.3558   0.01742   0.01190  -0.0904  0.1967  0.8391
   8.010   1.3772   0.01635   0.01086  -0.0924  0.2064  0.8389
   8.020   1.3575   0.01746   0.01194  -0.0904  0.1970  0.8397
   8.040   1.3591   0.01750   0.01198  -0.0904  0.1973  0.8401
   8.050   1.3560   0.01776   0.01224  -0.0900  0.1960  0.8405
   8.060   1.3502   0.01822   0.01269  -0.0895  0.1927  0.8412
   8.070   1.3836   0.01637   0.01089  -0.0925  0.2083  0.8398
   8.080   1.3445   0.01880   0.01327  -0.0891  0.1897  0.8414
   8.090   1.3648   0.01750   0.01200  -0.0905  0.1990  0.8411
   8.100   1.3774   0.01685   0.01137  -0.0915  0.2046  0.8409
   8.120   1.3542   0.01842   0.01291  -0.0895  0.1934  0.8423
   8.130   1.3934   0.01622   0.01077  -0.0929  0.2114  0.8410
   8.140   1.3472   0.01910   0.01359  -0.0889  0.1897  0.8432
   8.150   1.3501   0.01896   0.01345  -0.0890  0.1906  0.8432
   8.160   1.3604   0.01829   0.01280  -0.0896  0.1959  0.8432
   8.170   1.3473   0.01935   0.01384  -0.0887  0.1890  0.8442
   8.180   1.3479   0.01940   0.01389  -0.0887  0.1889  0.8439
   8.190   1.2900   0.02373   0.01810  -0.0848  0.1571  0.8453
   8.200   1.3693   0.01800   0.01252  -0.0900  0.1990  0.8436
   8.210   1.3393   0.02033   0.01481  -0.0881  0.1835  0.8449
   8.220   1.3772   0.01764   0.01218  -0.0905  0.2026  0.8438
   8.230   1.3747   0.01786   0.01240  -0.0902  0.2013  0.8438
   8.240   1.3764   0.01782   0.01237  -0.0903  0.2019  0.8442
   8.250   1.3784   0.01777   0.01232  -0.0904  0.2026  0.8442
   8.270   1.3271   0.02176   0.01621  -0.0869  0.1750  0.8467
   8.280   1.3397   0.02090   0.01539  -0.0877  0.1817  0.8468
