  
       XFOIL         Version 6.94
  
 Calculated polar for: 1080                                            
  
 1 1 Reynolds number fixed          Mach number fixed         
  
 xtrf =   1.000 (top)        1.000 (bottom)  
 Mach =   0.000     Re =     2.000 e 6     Ncrit =   9.000
  
  alpha     CL        CD       CDp       CM    Top_Xtr Bot_Xtr
 ------- -------- --------- --------- -------- ------- -------
   6.000   1.0552   0.00786   0.00334  -0.0574  0.4487  0.7244
   6.010   1.0560   0.00786   0.00334  -0.0573  0.4484  0.7245
   6.020   1.0567   0.00787   0.00335  -0.0573  0.4481  0.7246
   6.030   1.0578   0.00787   0.00335  -0.0573  0.4483  0.7246
   6.040   1.0586   0.00788   0.00336  -0.0572  0.4480  0.7247
   6.050   1.0594   0.00789   0.00336  -0.0572  0.4477  0.7247
   6.060   1.0604   0.00789   0.00337  -0.0572  0.4478  0.7248
   6.070   1.0611   0.00790   0.00337  -0.0571  0.4474  0.7249
   6.080   1.0622   0.00790   0.00338  -0.0571  0.4476  0.7249
   6.090   1.0630   0.00791   0.00338  -0.0571  0.4474  0.7250
   6.100   1.0638   0.00791   0.00339  -0.0570  0.4471  0.7251
   6.110   1.0646   0.00792   0.00339  -0.0570  0.4470  0.7251
   6.120   1.0653   0.00793   0.00340  -0.0569  0.4468  0.7252
   6.130   1.0663   0.00793   0.00341  -0.0569  0.4467  0.7252
   6.140   1.0670   0.00794   0.00341  -0.0569  0.4465  0.7253
   6.150   1.0678   0.00795   0.00342  -0.0568  0.4464  0.7254
   6.160   1.0686   0.00795   0.00342  -0.0568  0.4462  0.7254
   6.170   1.0696   0.00796   0.00343  -0.0568  0.4462  0.7255
   6.180   1.0705   0.00796   0.00343  -0.0567  0.4461  0.7255
   6.190   1.0711   0.00797   0.00344  -0.0567  0.4458  0.7256
   6.200   1.0721   0.00797   0.00345  -0.0567  0.4458  0.7257
   6.210   1.0727   0.00798   0.00345  -0.0566  0.4455  0.7257
   6.220   1.0735   0.00799   0.00346  -0.0565  0.4454  0.7258
   6.230   1.0744   0.00800   0.00347  -0.0565  0.4453  0.7258
   6.240   1.0752   0.00800   0.00347  -0.0565  0.4451  0.7259
   6.250   1.0760   0.00801   0.00348  -0.0564  0.4449  0.7259
   6.260   1.0770   0.00801   0.00348  -0.0564  0.4449  0.7260
   6.270   1.0781   0.00802   0.00348  -0.0564  0.4447  0.7261
   6.280   1.0791   0.00802   0.00349  -0.0564  0.4445  0.7261
   6.290   1.0801   0.00802   0.00349  -0.0564  0.4445  0.7262
   6.300   1.0811   0.00803   0.00350  -0.0564  0.4444  0.7262
   6.310   1.0821   0.00803   0.00350  -0.0564  0.4443  0.7263
   6.320   1.0831   0.00803   0.00350  -0.0564  0.4442  0.7263
   6.330   1.0841   0.00804   0.00351  -0.0564  0.4442  0.7264
   6.340   1.0851   0.00804   0.00351  -0.0564  0.4438  0.7265
   6.350   1.0861   0.00804   0.00352  -0.0564  0.4438  0.7265
   6.360   1.0871   0.00804   0.00352  -0.0564  0.4436  0.7266
   6.370   1.0880   0.00805   0.00352  -0.0564  0.4436  0.7266
   6.380   1.0890   0.00805   0.00353  -0.0564  0.4433  0.7267
   6.390   1.0900   0.00805   0.00353  -0.0564  0.4433  0.7268
   6.400   1.0910   0.00806   0.00354  -0.0564  0.4431  0.7268
   6.410   1.0919   0.00806   0.00354  -0.0564  0.4430  0.7269
   6.420   1.0929   0.00807   0.00355  -0.0564  0.4429  0.7269
   6.430   1.0939   0.00807   0.00355  -0.0563  0.4428  0.7270
   6.440   1.0949   0.00807   0.00355  -0.0563  0.4427  0.7271
   6.450   1.0958   0.00808   0.00356  -0.0563  0.4426  0.7271
   6.460   1.0968   0.00808   0.00356  -0.0563  0.4422  0.7272
   6.470   1.0978   0.00808   0.00357  -0.0563  0.4423  0.7272
   6.480   1.0987   0.00809   0.00357  -0.0563  0.4420  0.7273
   6.490   1.0996   0.00809   0.00358  -0.0563  0.4419  0.7274
   6.500   1.1006   0.00810   0.00358  -0.0563  0.4417  0.7274
   6.510   1.1015   0.00810   0.00359  -0.0562  0.4416  0.7275
   6.520   1.1024   0.00811   0.00359  -0.0562  0.4414  0.7275
   6.530   1.1034   0.00811   0.00360  -0.0562  0.4413  0.7276
   6.540   1.1042   0.00812   0.00360  -0.0562  0.4408  0.7277
   6.550   1.1052   0.00812   0.00360  -0.0562  0.4410  0.7277
   6.560   1.1061   0.00812   0.00361  -0.0561  0.4408  0.7278
   6.570   1.1070   0.00813   0.00361  -0.0561  0.4405  0.7278
   6.580   1.1079   0.00813   0.00362  -0.0561  0.4405  0.7279
   6.590   1.1089   0.00814   0.00362  -0.0561  0.4404  0.7280
   6.600   1.1097   0.00814   0.00363  -0.0560  0.4401  0.7280
   6.610   1.1107   0.00815   0.00363  -0.0560  0.4401  0.7281
   6.620   1.1115   0.00815   0.00364  -0.0560  0.4399  0.7281
   6.630   1.1124   0.00816   0.00364  -0.0560  0.4398  0.7282
   6.640   1.1134   0.00816   0.00365  -0.0560  0.4397  0.7283
   6.650   1.1141   0.00817   0.00366  -0.0559  0.4393  0.7283
   6.660   1.1151   0.00817   0.00366  -0.0559  0.4394  0.7284
   6.670   1.1159   0.00818   0.00367  -0.0559  0.4392  0.7284
   6.680   1.1168   0.00818   0.00367  -0.0559  0.4392  0.7285
   6.690   1.1175   0.00819   0.00368  -0.0558  0.4387  0.7286
   6.700   1.1185   0.00820   0.00368  -0.0558  0.4387  0.7286
   6.710   1.1193   0.00820   0.00369  -0.0557  0.4384  0.7287
   6.720   1.1200   0.00821   0.00369  -0.0557  0.4382  0.7287
   6.730   1.1207   0.00822   0.00370  -0.0556  0.4379  0.7288
   6.740   1.1216   0.00822   0.00371  -0.0556  0.4378  0.7289
   6.750   1.1226   0.00823   0.00371  -0.0556  0.4378  0.7289
   6.760   1.1234   0.00823   0.00372  -0.0556  0.4377  0.7290
   6.770   1.1241   0.00824   0.00372  -0.0555  0.4374  0.7290
   6.780   1.1252   0.00824   0.00373  -0.0555  0.4375  0.7291
   6.790   1.1259   0.00825   0.00373  -0.0555  0.4372  0.7292
   6.800   1.1266   0.00826   0.00374  -0.0554  0.4370  0.7292
   6.810   1.1273   0.00827   0.00375  -0.0553  0.4367  0.7293
   6.820   1.1282   0.00828   0.00375  -0.0553  0.4367  0.7293
   6.830   1.1289   0.00828   0.00376  -0.0553  0.4365  0.7294
   6.840   1.1296   0.00829   0.00377  -0.0552  0.4362  0.7294
   6.850   1.1305   0.00830   0.00377  -0.0552  0.4361  0.7295
   6.860   1.1313   0.00831   0.00378  -0.0551  0.4360  0.7296
   6.870   1.1322   0.00831   0.00379  -0.0551  0.4359  0.7296
   6.880   1.1328   0.00832   0.00379  -0.0550  0.4357  0.7297
   6.890   1.1334   0.00833   0.00380  -0.0550  0.4354  0.7297
   6.900   1.1344   0.00834   0.00381  -0.0550  0.4354  0.7298
   6.910   1.1350   0.00835   0.00382  -0.0549  0.4351  0.7298
   6.920   1.1358   0.00835   0.00382  -0.0548  0.4351  0.7299
   6.930   1.1366   0.00836   0.00383  -0.0548  0.4349  0.7300
   6.940   1.1372   0.00837   0.00384  -0.0547  0.4346  0.7300
   6.950   1.1381   0.00838   0.00384  -0.0547  0.4345  0.7301
   6.960   1.1391   0.00838   0.00385  -0.0547  0.4345  0.7301
   6.970   1.1401   0.00838   0.00385  -0.0547  0.4342  0.7302
   6.980   1.1410   0.00839   0.00386  -0.0547  0.4341  0.7302
   6.990   1.1420   0.00839   0.00386  -0.0547  0.4340  0.7303
   7.000   1.1430   0.00840   0.00387  -0.0547  0.4339  0.7303
   7.010   1.1440   0.00840   0.00387  -0.0547  0.4338  0.7304
   7.020   1.1449   0.00840   0.00388  -0.0547  0.4337  0.7304
   7.030   1.1459   0.00841   0.00388  -0.0546  0.4335  0.7305
   7.040   1.1468   0.00841   0.00389  -0.0546  0.4334  0.7305
   7.050   1.1478   0.00842   0.00389  -0.0546  0.4330  0.7306
   7.060   1.1487   0.00842   0.00390  -0.0546  0.4331  0.7306
   7.070   1.1497   0.00843   0.00390  -0.0546  0.4327  0.7307
   7.080   1.1507   0.00843   0.00390  -0.0546  0.4328  0.7307
   7.090   1.1516   0.00843   0.00391  -0.0546  0.4325  0.7308
   7.100   1.1525   0.00844   0.00391  -0.0546  0.4323  0.7308
   7.110   1.1534   0.00844   0.00392  -0.0545  0.4322  0.7309
   7.120   1.1543   0.00845   0.00392  -0.0545  0.4322  0.7309
   7.130   1.1553   0.00845   0.00393  -0.0545  0.4318  0.7310
   7.140   1.1562   0.00846   0.00394  -0.0545  0.4318  0.7310
   7.150   1.1571   0.00846   0.00394  -0.0545  0.4317  0.7311
   7.160   1.1580   0.00847   0.00395  -0.0545  0.4315  0.7311
   7.170   1.1589   0.00847   0.00395  -0.0544  0.4314  0.7312
   7.180   1.1598   0.00848   0.00396  -0.0544  0.4310  0.7312
   7.190   1.1606   0.00849   0.00396  -0.0544  0.4308  0.7313
   7.200   1.1615   0.00849   0.00397  -0.0544  0.4306  0.7313
   7.210   1.1623   0.00850   0.00397  -0.0543  0.4304  0.7313
