  
       XFOIL         Version 6.94
  
 Calculated polar for: 1080                                            
  
 1 1 Reynolds number fixed          Mach number fixed         
  
 xtrf =   1.000 (top)        1.000 (bottom)  
 Mach =   0.000     Re =     2.000 e 6     Ncrit =   9.000
  
  alpha     CL        CD       CDp       CM    Top_Xtr Bot_Xtr
 ------- -------- --------- --------- -------- ------- -------
   6.000   1.4217   0.00727   0.00319  -0.1647  0.5660  0.6361
   6.010   1.4235   0.00726   0.00319  -0.1649  0.5665  0.6366
   6.020   1.4292   0.00721   0.00317  -0.1659  0.5714  0.6372
   6.030   1.4282   0.00723   0.00318  -0.1654  0.5687  0.6375
   6.040   1.4308   0.00721   0.00318  -0.1658  0.5706  0.6382
   6.050   1.4320   0.00721   0.00318  -0.1658  0.5709  0.6387
   6.060   1.4300   0.00725   0.00320  -0.1652  0.5675  0.6393
   6.070   1.4286   0.00728   0.00322  -0.1647  0.5658  0.6396
   6.080   1.4270   0.00732   0.00324  -0.1641  0.5617  0.6400
   6.090   1.4351   0.00722   0.00320  -0.1656  0.5694  0.6410
   6.100   1.4301   0.00730   0.00324  -0.1644  0.5636  0.6414
   6.110   1.4314   0.00730   0.00325  -0.1644  0.5645  0.6419
   6.140   1.4357   0.00728   0.00325  -0.1647  0.5656  0.6448
   6.150   1.4318   0.00736   0.00330  -0.1637  0.5586  0.6456
   6.160   1.4271   0.00746   0.00336  -0.1625  0.5526  0.6463
   6.170   1.4300   0.00742   0.00334  -0.1629  0.5558  0.6476
   6.180   1.4337   0.00738   0.00332  -0.1634  0.5575  0.6492
   6.190   1.4389   0.00731   0.00329  -0.1643  0.5622  0.6506
   6.200   1.4308   0.00746   0.00338  -0.1624  0.5519  0.6519
   6.210   1.4302   0.00749   0.00340  -0.1621  0.5500  0.6530
   6.220   1.4332   0.00745   0.00339  -0.1625  0.5521  0.6565
   6.230   1.4384   0.00737   0.00335  -0.1634  0.5569  0.6619
   6.240   1.4347   0.00744   0.00341  -0.1625  0.5511  0.6652
   6.250   1.4297   0.00754   0.00348  -0.1612  0.5460  0.6714
   6.260   1.4358   0.00744   0.00344  -0.1623  0.5494  0.6839
   6.270   1.4369   0.00741   0.00346  -0.1624  0.5490  0.7052
   6.280   1.4383   0.00737   0.00348  -0.1625  0.5487  0.7335
   6.290   1.4432   0.00728   0.00348  -0.1633  0.5524  0.7699
   6.300   1.4414   0.00733   0.00353  -0.1627  0.5493  0.7780
   6.310   1.4315   0.00751   0.00367  -0.1605  0.5387  0.7825
   6.320   1.4347   0.00748   0.00365  -0.1609  0.5406  0.7870
   6.330   1.4402   0.00740   0.00360  -0.1618  0.5464  0.7893
   6.340   1.4410   0.00740   0.00361  -0.1618  0.5462  0.7913
   6.350   1.4461   0.00734   0.00357  -0.1626  0.5490  0.7931
   6.360   1.4315   0.00762   0.00377  -0.1595  0.5340  0.7938
   6.370   1.4427   0.00743   0.00364  -0.1615  0.5443  0.7956
   6.380   1.4339   0.00761   0.00377  -0.1595  0.5346  0.7961
   6.390   1.4379   0.00756   0.00374  -0.1601  0.5377  0.7972
   6.400   1.4419   0.00751   0.00370  -0.1607  0.5400  0.7982
   6.410   1.4377   0.00761   0.00377  -0.1597  0.5359  0.7990
   6.420   1.4410   0.00757   0.00375  -0.1601  0.5378  0.7995
   6.430   1.4397   0.00761   0.00379  -0.1597  0.5358  0.8001
   6.440   1.4349   0.00773   0.00387  -0.1585  0.5294  0.8009
   6.450   1.4381   0.00768   0.00385  -0.1590  0.5316  0.8019
   6.460   1.4366   0.00774   0.00389  -0.1584  0.5292  0.8025
   6.470   1.4411   0.00767   0.00384  -0.1591  0.5326  0.8030
   6.480   1.4411   0.00769   0.00386  -0.1589  0.5315  0.8040
   6.490   1.4401   0.00773   0.00390  -0.1585  0.5297  0.8047
   6.500   1.4411   0.00774   0.00390  -0.1585  0.5298  0.8051
   6.510   1.4416   0.00775   0.00391  -0.1584  0.5294  0.8059
   6.520   1.4363   0.00787   0.00401  -0.1572  0.5235  0.8064
   6.530   1.4422   0.00778   0.00394  -0.1582  0.5284  0.8072
   6.540   1.4371   0.00790   0.00403  -0.1569  0.5224  0.8076
   6.550   1.4381   0.00791   0.00404  -0.1569  0.5224  0.8081
   6.560   1.4426   0.00784   0.00399  -0.1576  0.5263  0.8087
   6.570   1.4310   0.00809   0.00418  -0.1552  0.5151  0.8091
   6.580   1.4329   0.00807   0.00417  -0.1553  0.5160  0.8095
   6.590   1.4367   0.00802   0.00414  -0.1559  0.5184  0.8100
   6.600   1.4446   0.00789   0.00404  -0.1572  0.5243  0.8105
   6.610   1.4213   0.00838   0.00441  -0.1525  0.5037  0.8106
   6.620   1.4318   0.00818   0.00427  -0.1543  0.5115  0.8112
   6.630   1.4451   0.00795   0.00409  -0.1567  0.5219  0.8118
   6.640   1.4448   0.00797   0.00412  -0.1565  0.5209  0.8121
   6.650   1.4364   0.00816   0.00426  -0.1546  0.5131  0.8127
   6.660   1.4236   0.00844   0.00449  -0.1519  0.5018  0.8129
   6.670   1.4349   0.00823   0.00432  -0.1539  0.5104  0.8134
   6.680   1.4344   0.00827   0.00435  -0.1536  0.5094  0.8141
   6.690   1.4245   0.00850   0.00454  -0.1515  0.5005  0.8143
   6.700   1.4510   0.00798   0.00414  -0.1565  0.5214  0.8147
   6.710   1.4381   0.00826   0.00436  -0.1537  0.5100  0.8151
   6.720   1.4341   0.00837   0.00444  -0.1528  0.5062  0.8156
   6.730   1.4432   0.00820   0.00432  -0.1543  0.5126  0.8161
   6.740   1.4220   0.00866   0.00469  -0.1501  0.4955  0.8163
   6.750   1.4361   0.00840   0.00447  -0.1526  0.5055  0.8168
   6.760   1.4356   0.00843   0.00450  -0.1523  0.5042  0.8172
   6.770   1.4358   0.00845   0.00452  -0.1521  0.5036  0.8177
   6.780   1.4257   0.00868   0.00471  -0.1500  0.4957  0.8181
   6.790   1.4239   0.00874   0.00476  -0.1495  0.4936  0.8183
   6.800   1.4260   0.00872   0.00475  -0.1497  0.4945  0.8187
   6.810   1.4331   0.00860   0.00465  -0.1509  0.4992  0.8191
   6.820   1.4292   0.00870   0.00474  -0.1499  0.4956  0.8193
   6.830   1.4239   0.00884   0.00485  -0.1487  0.4911  0.8197
   6.840   1.4290   0.00876   0.00478  -0.1495  0.4941  0.8201
   6.850   1.4249   0.00887   0.00488  -0.1485  0.4905  0.8204
   6.860   1.4329   0.00872   0.00476  -0.1499  0.4958  0.8206
   6.870   1.4165   0.00910   0.00508  -0.1466  0.4839  0.8209
   6.880   1.4254   0.00893   0.00494  -0.1481  0.4894  0.8211
   6.890   1.4187   0.00910   0.00509  -0.1466  0.4842  0.8215
   6.900   1.4249   0.00899   0.00500  -0.1476  0.4881  0.8218
   6.910   1.4029   0.00950   0.00544  -0.1434  0.4736  0.8221
   6.920   1.4073   0.00943   0.00538  -0.1440  0.4758  0.8224
   6.930   1.4103   0.00938   0.00534  -0.1443  0.4773  0.8227
   6.940   1.4358   0.00885   0.00489  -0.1489  0.4926  0.8228
   6.950   1.4177   0.00927   0.00525  -0.1453  0.4805  0.8233
   6.960   1.4112   0.00944   0.00540  -0.1440  0.4763  0.8236
   6.970   1.4236   0.00919   0.00519  -0.1460  0.4831  0.8239
   6.980   1.3959   0.00986   0.00578  -0.1409  0.4671  0.8246
   6.990   1.4007   0.00977   0.00571  -0.1415  0.4692  0.8247
   7.000   1.4125   0.00951   0.00548  -0.1435  0.4752  0.8248
   7.010   1.3811   0.01033   0.00622  -0.1378  0.4588  0.8255
   7.020   1.4169   0.00946   0.00544  -0.1439  0.4769  0.8254
   7.030   1.3801   0.01042   0.00631  -0.1373  0.4577  0.8261
   7.040   1.4070   0.00976   0.00571  -0.1418  0.4704  0.8262
   7.050   1.3663   0.01090   0.00675  -0.1347  0.4507  0.8269
   7.060   1.3926   0.01018   0.00609  -0.1389  0.4622  0.8269
   7.070   1.4183   0.00957   0.00554  -0.1432  0.4753  0.8269
   7.080   1.4140   0.00970   0.00566  -0.1423  0.4724  0.8272
   7.090   1.3863   0.01044   0.00634  -0.1373  0.4586  0.8278
   7.100   1.4146   0.00974   0.00570  -0.1421  0.4719  0.8278
   7.110   1.3781   0.01075   0.00663  -0.1356  0.4540  0.8285
   7.120   1.4013   0.01013   0.00606  -0.1394  0.4644  0.8285
   7.130   1.3994   0.01021   0.00614  -0.1389  0.4631  0.8288
   7.140   1.3934   0.01040   0.00632  -0.1377  0.4601  0.8291
   7.150   1.3951   0.01039   0.00631  -0.1378  0.4605  0.8294
   7.160   1.3891   0.01059   0.00650  -0.1366  0.4577  0.8297
   7.170   1.3843   0.01077   0.00666  -0.1357  0.4551  0.8300
   7.180   1.3668   0.01137   0.00724  -0.1327  0.4478  0.8304
   7.190   1.3668   0.01142   0.00728  -0.1326  0.4476  0.8307
   7.200   1.3817   0.01096   0.00685  -0.1348  0.4531  0.8307
   7.210   1.4143   0.01006   0.00602  -0.1401  0.4678  0.8306
   7.220   1.4106   0.01019   0.00614  -0.1393  0.4654  0.8308
   7.230   1.3577   0.01193   0.00779  -0.1307  0.4429  0.8317
   7.240   1.3633   0.01175   0.00762  -0.1313  0.4449  0.8318
   7.250   1.3708   0.01152   0.00740  -0.1323  0.4478  0.8320
   7.260   1.3702   0.01158   0.00746  -0.1321  0.4473  0.8322
   7.270   1.3711   0.01159   0.00747  -0.1321  0.4474  0.8324
   7.280   1.3652   0.01186   0.00774  -0.1310  0.4447  0.8327
   7.290   1.3347   0.01334   0.00919  -0.1268  0.4325  0.8333
   7.300   1.4103   0.01044   0.00640  -0.1379  0.4626  0.8325
   7.310   1.3395   0.01321   0.00906  -0.1272  0.4340  0.8338
   7.320   1.3199   0.01434   0.01016  -0.1246  0.4253  0.8343
   7.330   1.3453   0.01303   0.00889  -0.1277  0.4361  0.8342
   7.340   1.3367   0.01354   0.00940  -0.1265  0.4321  0.8347
   7.350   1.3512   0.01284   0.00872  -0.1282  0.4382  0.8346
   7.360   1.3646   0.01227   0.00816  -0.1299  0.4427  0.8346
   7.370   1.3603   0.01251   0.00840  -0.1291  0.4409  0.8349
   7.380   1.3417   0.01352   0.00939  -0.1266  0.4332  0.8354
   7.390   1.3451   0.01340   0.00927  -0.1269  0.4344  0.8357
   7.400   1.3339   0.01408   0.00993  -0.1254  0.4294  0.8361
   7.410   1.3647   0.01252   0.00842  -0.1292  0.4417  0.8358
   7.420   1.2731   0.01730   0.01304  -0.1174  0.4024  0.8372
   7.430   1.3420   0.01382   0.00969  -0.1261  0.4319  0.8366
   7.440   1.3570   0.01307   0.00897  -0.1278  0.4384  0.8367
   7.450   1.3479   0.01362   0.00950  -0.1266  0.4340  0.8369
   7.460   1.3714   0.01248   0.00839  -0.1295  0.4432  0.8368
   7.470   1.3596   0.01312   0.00902  -0.1278  0.4388  0.8373
   7.480   1.3339   0.01457   0.01043  -0.1245  0.4274  0.8379
   7.490   1.3560   0.01343   0.00933  -0.1271  0.4366  0.8377
   7.500   1.3453   0.01408   0.00996  -0.1257  0.4315  0.8382
   7.510   1.3024   0.01637   0.01217  -0.1201  0.4129  0.8388
   7.520   1.3252   0.01527   0.01112  -0.1229  0.4222  0.8388
   7.530   1.3323   0.01496   0.01082  -0.1237  0.4252  0.8390
   7.540   1.3158   0.01587   0.01170  -0.1214  0.4183  0.8394
   7.550   1.3383   0.01477   0.01064  -0.1242  0.4275  0.8393
   7.560   1.3604   0.01363   0.00954  -0.1268  0.4366  0.8392
   7.570   1.3241   0.01563   0.01147  -0.1221  0.4206  0.8399
   7.580   1.3032   0.01672   0.01253  -0.1193  0.4115  0.8404
   7.590   1.3361   0.01512   0.01099  -0.1234  0.4253  0.8402
   7.600   1.3225   0.01588   0.01173  -0.1216  0.4193  0.8406
   7.610   1.3311   0.01550   0.01137  -0.1226  0.4225  0.8406
   7.620   1.3175   0.01624   0.01208  -0.1207  0.4170  0.8409
   7.630   1.3450   0.01490   0.01079  -0.1241  0.4284  0.8409
   7.640   1.3256   0.01595   0.01180  -0.1215  0.4196  0.8412
   7.650   1.3280   0.01589   0.01175  -0.1217  0.4203  0.8414
   7.660   1.3098   0.01685   0.01267  -0.1192  0.4124  0.8418
   7.670   1.3314   0.01584   0.01170  -0.1219  0.4211  0.8417
   7.690   1.3325   0.01589   0.01176  -0.1218  0.4212  0.8421
   7.700   1.3320   0.01598   0.01185  -0.1216  0.4207  0.8423
   7.710   1.3292   0.01617   0.01204  -0.1211  0.4195  0.8425
   7.720   1.3130   0.01702   0.01286  -0.1189  0.4124  0.8428
   7.730   1.3201   0.01673   0.01258  -0.1197  0.4154  0.8430
   7.740   1.3558   0.01499   0.01091  -0.1242  0.4299  0.8427
   7.750   1.3203   0.01683   0.01268  -0.1194  0.4150  0.8433
   7.760   1.2942   0.01814   0.01395  -0.1159  0.4036  0.8438
   7.770   1.3307   0.01643   0.01231  -0.1206  0.4190  0.8436
   7.780   1.3111   0.01744   0.01329  -0.1179  0.4105  0.8441
   7.790   1.3211   0.01701   0.01287  -0.1190  0.4144  0.8442
   7.800   1.3221   0.01701   0.01288  -0.1191  0.4147  0.8444
   7.810   1.3139   0.01748   0.01333  -0.1179  0.4109  0.8447
   7.820   1.3163   0.01741   0.01327  -0.1181  0.4117  0.8448
   7.830   1.2953   0.01847   0.01429  -0.1152  0.4025  0.8453
   7.840   1.2818   0.01918   0.01496  -0.1133  0.3968  0.8456
   7.850   1.3066   0.01804   0.01387  -0.1164  0.4074  0.8455
   7.860   1.3458   0.01619   0.01210  -0.1214  0.4228  0.8454
   7.870   1.2965   0.01864   0.01446  -0.1149  0.4022  0.8461
   7.880   1.3351   0.01683   0.01273  -0.1198  0.4185  0.8458
   7.890   1.3172   0.01775   0.01361  -0.1173  0.4106  0.8462
   7.900   1.3172   0.01781   0.01367  -0.1172  0.4103  0.8465
   7.910   1.2933   0.01901   0.01483  -0.1140  0.3999  0.8469
   7.920   1.2781   0.01979   0.01556  -0.1119  0.3925  0.8473
   7.930   1.2756   0.01996   0.01574  -0.1115  0.3911  0.8476
   7.940   1.3339   0.01721   0.01311  -0.1189  0.4167  0.8470
   7.950   1.2706   0.02032   0.01608  -0.1106  0.3885  0.8480
   7.960   1.2952   0.01919   0.01501  -0.1136  0.3995  0.8480
   7.970   1.2575   0.02106   0.01679  -0.1087  0.3811  0.8485
   7.980   1.2938   0.01937   0.01519  -0.1132  0.3985  0.8484
   7.990   1.2872   0.01973   0.01553  -0.1122  0.3953  0.8485
   8.000   1.2821   0.02004   0.01583  -0.1114  0.3924  0.8489
   8.010   1.2687   0.02074   0.01650  -0.1096  0.3863  0.8492
   8.020   1.3007   0.01925   0.01509  -0.1136  0.4005  0.8489
   8.030   1.3213   0.01832   0.01420  -0.1161  0.4092  0.8488
   8.040   1.2739   0.02066   0.01643  -0.1099  0.3879  0.8496
   8.050   1.2776   0.02054   0.01632  -0.1103  0.3892  0.8497
   8.060   1.2705   0.02093   0.01670  -0.1093  0.3856  0.8500
   8.070   1.2692   0.02105   0.01681  -0.1090  0.3845  0.8503
   8.080   1.2792   0.02062   0.01641  -0.1101  0.3892  0.8504
   8.090   1.2888   0.02022   0.01602  -0.1112  0.3934  0.8502
   8.100   1.2527   0.02203   0.01774  -0.1066  0.3753  0.8507
   8.110   1.2744   0.02103   0.01679  -0.1092  0.3862  0.8509
   8.120   1.2788   0.02086   0.01665  -0.1096  0.3880  0.8509
   8.130   1.2886   0.02045   0.01626  -0.1107  0.3923  0.8510
   8.140   1.2811   0.02087   0.01666  -0.1097  0.3885  0.8513
   8.150   1.2553   0.02219   0.01790  -0.1063  0.3752  0.8516
   8.160   1.2631   0.02186   0.01760  -0.1072  0.3785  0.8517
   8.170   1.2763   0.02127   0.01704  -0.1087  0.3852  0.8517
   8.180   1.3034   0.02001   0.01585  -0.1120  0.3980  0.8516
   8.200   1.2943   0.02056   0.01638  -0.1106  0.3932  0.8522
   8.210   1.2616   0.02221   0.01795  -0.1064  0.3768  0.8524
   8.220   1.2742   0.02164   0.01741  -0.1079  0.3824  0.8525
   8.230   1.2675   0.02203   0.01778  -0.1069  0.3788  0.8529
   8.240   1.2867   0.02114   0.01695  -0.1092  0.3884  0.8526
   8.250   1.2376   0.02362   0.01928  -0.1030  0.3609  0.8532
   8.260   1.2482   0.02314   0.01884  -0.1042  0.3671  0.8534
   8.270   1.2699   0.02213   0.01790  -0.1067  0.3790  0.8533
   8.280   1.2664   0.02236   0.01812  -0.1062  0.3772  0.8536
   8.290   1.2809   0.02170   0.01749  -0.1079  0.3840  0.8535
   8.300   1.2897   0.02132   0.01714  -0.1089  0.3882  0.8536
   8.310   1.2732   0.02219   0.01797  -0.1067  0.3795  0.8541
   8.320   1.2249   0.02466   0.02028  -0.1007  0.3509  0.8546
   8.330   1.2366   0.02413   0.01979  -0.1020  0.3578  0.8547
   8.340   1.2126   0.02544   0.02100  -0.0990  0.3409  0.8549
   8.350   1.2893   0.02162   0.01743  -0.1082  0.3870  0.8545
   8.360   1.2556   0.02334   0.01906  -0.1039  0.3678  0.8549
   8.370   1.2410   0.02414   0.01982  -0.1021  0.3591  0.8552
   8.380   1.2424   0.02412   0.01980  -0.1021  0.3595  0.8554
   8.390   1.2191   0.02540   0.02098  -0.0993  0.3437  0.8557
   8.400   1.2438   0.02417   0.01985  -0.1021  0.3597  0.8558
   8.410   1.2273   0.02508   0.02070  -0.1000  0.3483  0.8560
   8.420   1.2487   0.02403   0.01973  -0.1024  0.3621  0.8559
   8.430   1.2355   0.02476   0.02042  -0.1007  0.3537  0.8562
   8.440   1.2429   0.02445   0.02013  -0.1015  0.3577  0.8563
   8.450   1.2446   0.02442   0.02010  -0.1016  0.3584  0.8565
   8.460   1.2655   0.02341   0.01916  -0.1040  0.3700  0.8565
   8.470   1.2417   0.02467   0.02035  -0.1010  0.3562  0.8568
   8.480   1.2365   0.02501   0.02066  -0.1003  0.3519  0.8569
   8.490   1.2564   0.02405   0.01977  -0.1026  0.3646  0.8570
   8.500   1.2032   0.02699   0.02250  -0.0963  0.3257  0.8577
   8.510   1.2687   0.02353   0.01929  -0.1038  0.3703  0.8573
   8.520   1.2244   0.02592   0.02152  -0.0985  0.3410  0.8576
   8.530   1.2507   0.02457   0.02027  -0.1015  0.3592  0.8576
   8.540   1.2609   0.02411   0.01984  -0.1026  0.3657  0.8577
   8.550   1.2804   0.02318   0.01897  -0.1048  0.3762  0.8578
   8.560   1.2009   0.02751   0.02299  -0.0954  0.3203  0.8585
   8.570   1.2269   0.02610   0.02170  -0.0983  0.3407  0.8586
   8.580   1.2196   0.02658   0.02215  -0.0973  0.3351  0.8587
   8.590   1.2399   0.02550   0.02115  -0.0995  0.3488  0.8588
   8.600   1.2433   0.02539   0.02105  -0.0998  0.3509  0.8589
   8.610   1.2132   0.02714   0.02267  -0.0963  0.3277  0.8593
   8.620   1.2643   0.02440   0.02014  -0.1021  0.3649  0.8590
   8.630   1.2336   0.02611   0.02173  -0.0984  0.3430  0.8593
   8.640   1.2220   0.02684   0.02241  -0.0970  0.3339  0.8596
   8.650   1.2211   0.02695   0.02252  -0.0968  0.3325  0.8598
   8.660   1.2038   0.02800   0.02347  -0.0947  0.3163  0.8601
   8.670   1.2529   0.02530   0.02100  -0.1002  0.3550  0.8599
   8.690   1.2249   0.02700   0.02257  -0.0968  0.3335  0.8604
   8.700   1.2309   0.02672   0.02232  -0.0974  0.3373  0.8605
   8.710   1.2544   0.02547   0.02116  -0.0999  0.3540  0.8604
   8.720   1.2222   0.02734   0.02290  -0.0962  0.3291  0.8609
   8.730   1.2412   0.02633   0.02197  -0.0982  0.3440  0.8608
   8.740   1.1951   0.02906   0.02447  -0.0930  0.3044  0.8612
   8.750   1.2561   0.02563   0.02132  -0.0997  0.3531  0.8610
   8.760   1.2231   0.02756   0.02310  -0.0959  0.3273  0.8614
   8.770   1.2370   0.02683   0.02245  -0.0973  0.3383  0.8614
   8.780   1.2623   0.02548   0.02119  -0.1001  0.3562  0.8614
   8.790   1.2119   0.02840   0.02388  -0.0943  0.3157  0.8618
   8.800   1.2378   0.02699   0.02260  -0.0971  0.3373  0.8618
