  
       XFOIL         Version 6.94
  
 Calculated polar for: 1080                                            
  
 1 1 Reynolds number fixed          Mach number fixed         
  
 xtrf =   1.000 (top)        1.000 (bottom)  
 Mach =   0.000     Re =     2.000 e 6     Ncrit =   9.000
  
  alpha     CL        CD       CDp       CM    Top_Xtr Bot_Xtr
 ------- -------- --------- --------- -------- ------- -------
   6.000   1.2369   0.00818   0.00355  -0.0872  0.4333  0.7377
   6.010   1.2376   0.00819   0.00356  -0.0871  0.4326  0.7378
   6.020   1.2384   0.00819   0.00356  -0.0871  0.4321  0.7379
   6.030   1.2396   0.00819   0.00356  -0.0871  0.4325  0.7379
   6.040   1.2408   0.00819   0.00357  -0.0871  0.4331  0.7380
   6.050   1.2419   0.00819   0.00357  -0.0872  0.4334  0.7380
   6.060   1.2418   0.00822   0.00358  -0.0869  0.4311  0.7381
   6.070   1.2431   0.00822   0.00358  -0.0870  0.4317  0.7381
   6.080   1.2446   0.00821   0.00359  -0.0871  0.4328  0.7382
   6.090   1.2447   0.00823   0.00359  -0.0869  0.4311  0.7382
   6.100   1.2457   0.00823   0.00360  -0.0869  0.4311  0.7383
   6.110   1.2465   0.00824   0.00360  -0.0869  0.4309  0.7383
   6.120   1.2479   0.00824   0.00361  -0.0870  0.4315  0.7384
   6.130   1.2476   0.00827   0.00362  -0.0867  0.4297  0.7385
   6.140   1.2492   0.00826   0.00362  -0.0868  0.4305  0.7385
   6.150   1.2501   0.00826   0.00362  -0.0868  0.4304  0.7385
   6.160   1.2517   0.00825   0.00362  -0.0869  0.4313  0.7386
   6.170   1.2523   0.00827   0.00363  -0.0868  0.4308  0.7386
   6.180   1.2528   0.00828   0.00364  -0.0867  0.4301  0.7387
   6.190   1.2540   0.00828   0.00364  -0.0868  0.4303  0.7388
   6.200   1.2545   0.00829   0.00365  -0.0867  0.4298  0.7388
   6.210   1.2558   0.00829   0.00365  -0.0867  0.4301  0.7389
   6.220   1.2568   0.00829   0.00366  -0.0867  0.4301  0.7389
   6.230   1.2563   0.00833   0.00368  -0.0864  0.4285  0.7390
   6.240   1.2584   0.00831   0.00367  -0.0866  0.4297  0.7390
   6.250   1.2587   0.00833   0.00368  -0.0865  0.4290  0.7391
   6.260   1.2596   0.00833   0.00369  -0.0865  0.4288  0.7391
   6.270   1.2609   0.00833   0.00369  -0.0865  0.4292  0.7392
   6.280   1.2622   0.00833   0.00369  -0.0866  0.4296  0.7392
   6.290   1.2622   0.00835   0.00370  -0.0864  0.4285  0.7393
   6.300   1.2631   0.00836   0.00371  -0.0864  0.4284  0.7394
   6.310   1.2641   0.00836   0.00371  -0.0864  0.4277  0.7394
   6.320   1.2649   0.00837   0.00372  -0.0863  0.4279  0.7395
   6.330   1.2661   0.00837   0.00372  -0.0864  0.4275  0.7395
   6.340   1.2672   0.00837   0.00372  -0.0864  0.4269  0.7395
   6.360   1.2691   0.00838   0.00373  -0.0863  0.4274  0.7396
   6.370   1.2700   0.00839   0.00374  -0.0863  0.4276  0.7397
   6.380   1.2710   0.00839   0.00374  -0.0863  0.4276  0.7397
   6.390   1.2722   0.00839   0.00374  -0.0864  0.4257  0.7398
   6.400   1.2731   0.00839   0.00375  -0.0863  0.4263  0.7398
   6.410   1.2741   0.00840   0.00375  -0.0863  0.4272  0.7399
   6.420   1.2751   0.00840   0.00376  -0.0863  0.4268  0.7399
   6.430   1.2761   0.00840   0.00376  -0.0863  0.4266  0.7400
   6.440   1.2769   0.00841   0.00376  -0.0863  0.4243  0.7400
   6.450   1.2780   0.00841   0.00377  -0.0863  0.4272  0.7401
   6.460   1.2790   0.00842   0.00377  -0.0863  0.4258  0.7401
   6.470   1.2800   0.00842   0.00378  -0.0863  0.4262  0.7402
   6.480   1.2810   0.00842   0.00378  -0.0863  0.4259  0.7402
   6.490   1.2814   0.00844   0.00379  -0.0862  0.4228  0.7403
   6.500   1.2825   0.00844   0.00379  -0.0862  0.4233  0.7403
   6.510   1.2840   0.00843   0.00380  -0.0863  0.4257  0.7403
   6.520   1.2849   0.00844   0.00380  -0.0863  0.4249  0.7404
   6.530   1.2853   0.00846   0.00381  -0.0862  0.4228  0.7404
   6.540   1.2865   0.00846   0.00381  -0.0862  0.4235  0.7405
   6.550   1.2878   0.00845   0.00381  -0.0863  0.4248  0.7405
   6.560   1.2888   0.00846   0.00382  -0.0863  0.4250  0.7406
   6.570   1.2898   0.00846   0.00382  -0.0862  0.4249  0.7406
   6.580   1.2908   0.00846   0.00383  -0.0862  0.4249  0.7406
   6.590   1.2915   0.00847   0.00383  -0.0862  0.4238  0.7407
   6.600   1.2918   0.00849   0.00384  -0.0861  0.4222  0.7407
   6.610   1.2930   0.00849   0.00384  -0.0861  0.4226  0.7408
   6.620   1.2934   0.00851   0.00385  -0.0860  0.4214  0.7408
   6.630   1.2953   0.00849   0.00385  -0.0862  0.4236  0.7408
   6.640   1.2964   0.00849   0.00386  -0.0862  0.4239  0.7409
   6.650   1.2968   0.00851   0.00387  -0.0860  0.4223  0.7409
   6.660   1.2943   0.00859   0.00391  -0.0854  0.4172  0.7410
   6.670   1.2964   0.00857   0.00390  -0.0856  0.4190  0.7410
   6.680   1.2989   0.00854   0.00389  -0.0859  0.4210  0.7410
   6.690   1.3005   0.00853   0.00389  -0.0860  0.4220  0.7411
   6.700   1.3005   0.00856   0.00390  -0.0858  0.4206  0.7411
