  
       XFOIL         Version 6.94
  
 Calculated polar for: 1080                                            
  
 1 1 Reynolds number fixed          Mach number fixed         
  
 xtrf =   1.000 (top)        1.000 (bottom)  
 Mach =   0.000     Re =     2.000 e 6     Ncrit =   9.000
  
  alpha     CL        CD       CDp       CM    Top_Xtr Bot_Xtr
 ------- -------- --------- --------- -------- ------- -------
   6.000   1.3731   0.00847   0.00406  -0.1231  0.4160  0.7764
   6.010   1.3740   0.00848   0.00406  -0.1231  0.4157  0.7767
   6.020   1.3750   0.00849   0.00407  -0.1230  0.4155  0.7769
   6.030   1.3760   0.00849   0.00407  -0.1230  0.4153  0.7772
   6.040   1.3769   0.00850   0.00408  -0.1230  0.4151  0.7775
   6.050   1.3779   0.00851   0.00409  -0.1230  0.4149  0.7778
   6.060   1.3788   0.00852   0.00410  -0.1230  0.4146  0.7779
   6.070   1.3798   0.00852   0.00410  -0.1230  0.4144  0.7781
   6.080   1.3808   0.00853   0.00411  -0.1229  0.4143  0.7784
   6.090   1.3816   0.00854   0.00412  -0.1229  0.4139  0.7787
   6.100   1.3825   0.00855   0.00412  -0.1229  0.4137  0.7792
   6.110   1.3835   0.00856   0.00413  -0.1229  0.4136  0.7791
   6.120   1.3844   0.00857   0.00414  -0.1228  0.4133  0.7794
   6.130   1.3853   0.00858   0.00415  -0.1228  0.4130  0.7795
   6.140   1.3862   0.00858   0.00415  -0.1228  0.4129  0.7798
   6.150   1.3871   0.00859   0.00416  -0.1228  0.4127  0.7801
   6.160   1.3881   0.00860   0.00417  -0.1227  0.4125  0.7803
   6.170   1.3889   0.00861   0.00418  -0.1227  0.4122  0.7806
   6.180   1.3898   0.00862   0.00418  -0.1227  0.4120  0.7805
   6.200   1.3916   0.00864   0.00420  -0.1226  0.4117  0.7811
   6.210   1.3924   0.00865   0.00421  -0.1226  0.4113  0.7814
   6.220   1.3933   0.00866   0.00422  -0.1225  0.4112  0.7814
   6.230   1.3943   0.00866   0.00422  -0.1225  0.4110  0.7818
   6.240   1.3954   0.00867   0.00423  -0.1225  0.4108  0.7818
   6.250   1.3964   0.00867   0.00423  -0.1225  0.4107  0.7820
   6.260   1.3974   0.00868   0.00424  -0.1225  0.4104  0.7823
   6.270   1.3985   0.00868   0.00424  -0.1225  0.4102  0.7826
   6.280   1.3995   0.00868   0.00425  -0.1225  0.4100  0.7827
   6.290   1.4005   0.00869   0.00425  -0.1225  0.4100  0.7829
   6.300   1.4015   0.00869   0.00426  -0.1225  0.4097  0.7832
   6.310   1.4025   0.00870   0.00427  -0.1225  0.4095  0.7833
   6.320   1.4035   0.00870   0.00427  -0.1225  0.4093  0.7835
   6.330   1.4045   0.00871   0.00428  -0.1225  0.4090  0.7839
   6.340   1.4055   0.00871   0.00428  -0.1225  0.4089  0.7840
   6.350   1.4065   0.00872   0.00429  -0.1225  0.4087  0.7841
   6.360   1.4075   0.00872   0.00429  -0.1224  0.4084  0.7843
   6.370   1.4085   0.00873   0.00430  -0.1224  0.4081  0.7848
   6.380   1.4095   0.00873   0.00431  -0.1224  0.4080  0.7849
   6.390   1.4105   0.00874   0.00431  -0.1224  0.4079  0.7850
   6.400   1.4114   0.00875   0.00432  -0.1224  0.4075  0.7854
   6.410   1.4124   0.00875   0.00433  -0.1224  0.4073  0.7854
   6.420   1.4133   0.00876   0.00433  -0.1223  0.4070  0.7856
   6.430   1.4143   0.00877   0.00434  -0.1223  0.4069  0.7858
   6.440   1.4153   0.00877   0.00434  -0.1223  0.4067  0.7861
   6.450   1.4163   0.00878   0.00435  -0.1223  0.4066  0.7862
   6.460   1.4171   0.00879   0.00436  -0.1223  0.4060  0.7863
   6.470   1.4181   0.00879   0.00437  -0.1222  0.4059  0.7868
   6.480   1.4190   0.00880   0.00437  -0.1222  0.4057  0.7869
   6.490   1.4199   0.00881   0.00438  -0.1222  0.4054  0.7870
   6.500   1.4208   0.00882   0.00439  -0.1222  0.4052  0.7873
   6.510   1.4218   0.00882   0.00439  -0.1222  0.4050  0.7876
   6.520   1.4226   0.00883   0.00440  -0.1221  0.4047  0.7877
   6.530   1.4235   0.00884   0.00441  -0.1221  0.4045  0.7879
   6.540   1.4245   0.00885   0.00442  -0.1221  0.4044  0.7882
   6.550   1.4253   0.00886   0.00443  -0.1220  0.4040  0.7884
   6.560   1.4262   0.00887   0.00443  -0.1220  0.4038  0.7885
   6.570   1.4271   0.00888   0.00444  -0.1220  0.4036  0.7886
   6.580   1.4280   0.00888   0.00445  -0.1219  0.4034  0.7891
   6.590   1.4288   0.00890   0.00446  -0.1219  0.4031  0.7891
   6.600   1.4297   0.00890   0.00446  -0.1219  0.4029  0.7894
   6.610   1.4305   0.00891   0.00447  -0.1218  0.4027  0.7896
   6.620   1.4313   0.00893   0.00448  -0.1218  0.4024  0.7897
   6.630   1.4322   0.00893   0.00449  -0.1218  0.4023  0.7899
   6.640   1.4330   0.00895   0.00450  -0.1217  0.4019  0.7901
   6.650   1.4338   0.00896   0.00451  -0.1217  0.4018  0.7903
   6.660   1.4346   0.00897   0.00452  -0.1216  0.4015  0.7904
   6.670   1.4354   0.00898   0.00453  -0.1216  0.4013  0.7907
   6.680   1.4363   0.00899   0.00454  -0.1215  0.4010  0.7908
   6.690   1.4371   0.00900   0.00454  -0.1215  0.4008  0.7910
   6.700   1.4380   0.00901   0.00455  -0.1215  0.4006  0.7911
   6.710   1.4390   0.00901   0.00456  -0.1215  0.4004  0.7914
   6.720   1.4400   0.00902   0.00456  -0.1215  0.4003  0.7914
   6.730   1.4410   0.00902   0.00457  -0.1214  0.4000  0.7916
   6.760   1.4439   0.00904   0.00459  -0.1214  0.3995  0.7922
   6.770   1.4449   0.00904   0.00459  -0.1214  0.3993  0.7924
   6.780   1.4458   0.00905   0.00460  -0.1214  0.3990  0.7926
   6.790   1.4468   0.00906   0.00460  -0.1214  0.3988  0.7926
   6.800   1.4477   0.00906   0.00461  -0.1213  0.3986  0.7928
   6.810   1.4487   0.00907   0.00462  -0.1213  0.3984  0.7931
   6.820   1.4496   0.00907   0.00462  -0.1213  0.3982  0.7933
   6.830   1.4506   0.00908   0.00463  -0.1213  0.3980  0.7934
   6.840   1.4515   0.00909   0.00464  -0.1213  0.3977  0.7934
   6.850   1.4524   0.00909   0.00465  -0.1212  0.3975  0.7938
   6.860   1.4533   0.00910   0.00465  -0.1212  0.3972  0.7939
   6.870   1.4542   0.00911   0.00466  -0.1212  0.3970  0.7940
   6.880   1.4551   0.00911   0.00467  -0.1212  0.3968  0.7943
   6.890   1.4560   0.00912   0.00467  -0.1211  0.3966  0.7944
   6.900   1.4568   0.00913   0.00468  -0.1211  0.3963  0.7946
   6.910   1.4577   0.00914   0.00469  -0.1210  0.3960  0.7948
   6.920   1.4586   0.00914   0.00470  -0.1210  0.3958  0.7949
   6.930   1.4594   0.00915   0.00471  -0.1210  0.3954  0.7952
   6.940   1.4602   0.00916   0.00471  -0.1209  0.3952  0.7952
   6.950   1.4610   0.00917   0.00472  -0.1209  0.3950  0.7955
   6.960   1.4619   0.00917   0.00473  -0.1209  0.3948  0.7956
   6.970   1.4627   0.00918   0.00474  -0.1208  0.3946  0.7958
   6.980   1.4633   0.00920   0.00475  -0.1207  0.3941  0.7960
   6.990   1.4642   0.00920   0.00475  -0.1207  0.3940  0.7963
   7.000   1.4649   0.00921   0.00476  -0.1206  0.3937  0.7964
   7.010   1.4657   0.00922   0.00477  -0.1206  0.3935  0.7966
   7.020   1.4663   0.00923   0.00478  -0.1205  0.3931  0.7967
   7.030   1.4672   0.00924   0.00479  -0.1205  0.3931  0.7969
   7.040   1.4677   0.00925   0.00480  -0.1204  0.3926  0.7972
   7.050   1.4684   0.00926   0.00481  -0.1203  0.3924  0.7974
   7.060   1.4692   0.00927   0.00481  -0.1203  0.3923  0.7975
   7.070   1.4697   0.00928   0.00483  -0.1202  0.3919  0.7977
   7.080   1.4703   0.00929   0.00484  -0.1201  0.3917  0.7979
   7.090   1.4711   0.00930   0.00484  -0.1200  0.3916  0.7981
   7.100   1.4718   0.00931   0.00485  -0.1200  0.3913  0.7982
   7.110   1.4722   0.00933   0.00486  -0.1198  0.3910  0.7985
   7.120   1.4727   0.00934   0.00487  -0.1197  0.3907  0.7986
   7.130   1.4732   0.00935   0.00489  -0.1196  0.3903  0.7988
   7.140   1.4740   0.00936   0.00489  -0.1196  0.3902  0.7991
   7.150   1.4749   0.00936   0.00490  -0.1196  0.3900  0.7992
   7.160   1.4758   0.00937   0.00490  -0.1195  0.3899  0.7994
   7.170   1.4766   0.00937   0.00491  -0.1195  0.3895  0.7995
   7.180   1.4775   0.00938   0.00491  -0.1194  0.3894  0.7998
   7.190   1.4783   0.00938   0.00492  -0.1194  0.3893  0.7999
   7.200   1.4790   0.00939   0.00493  -0.1193  0.3888  0.8002
   7.210   1.4800   0.00940   0.00493  -0.1193  0.3888  0.8003
   7.220   1.4807   0.00940   0.00494  -0.1193  0.3885  0.8006
   7.230   1.4816   0.00941   0.00495  -0.1192  0.3883  0.8008
   7.240   1.4823   0.00942   0.00495  -0.1192  0.3881  0.8009
   7.250   1.4832   0.00942   0.00496  -0.1191  0.3880  0.8012
   7.260   1.4839   0.00943   0.00497  -0.1191  0.3876  0.8013
   7.270   1.4845   0.00944   0.00498  -0.1190  0.3871  0.8015
   7.280   1.4850   0.00945   0.00499  -0.1189  0.3865  0.8017
   7.290   1.4856   0.00947   0.00500  -0.1188  0.3860  0.8019
   7.300   1.4868   0.00947   0.00500  -0.1188  0.3863  0.8022
   7.310   1.4875   0.00948   0.00501  -0.1188  0.3860  0.8024
   7.320   1.4883   0.00948   0.00501  -0.1187  0.3859  0.8026
   7.350   1.4898   0.00952   0.00505  -0.1184  0.3844  0.8033
   7.360   1.4911   0.00952   0.00505  -0.1185  0.3848  0.8034
   7.370   1.4918   0.00953   0.00506  -0.1184  0.3846  0.8037
   7.380   1.4915   0.00956   0.00508  -0.1181  0.3834  0.8039
   7.390   1.4931   0.00954   0.00508  -0.1183  0.3841  0.8041
   7.400   1.4935   0.00956   0.00509  -0.1181  0.3835  0.8042
   7.410   1.4938   0.00958   0.00511  -0.1180  0.3830  0.8046
   7.420   1.4946   0.00958   0.00512  -0.1180  0.3830  0.8048
   7.430   1.4945   0.00961   0.00514  -0.1177  0.3820  0.8049
   7.440   1.4948   0.00963   0.00515  -0.1176  0.3816  0.8051
   7.450   1.4967   0.00961   0.00515  -0.1177  0.3824  0.8054
   7.460   1.4968   0.00964   0.00516  -0.1176  0.3818  0.8056
   7.470   1.4979   0.00964   0.00517  -0.1176  0.3819  0.8059
   7.480   1.4982   0.00965   0.00518  -0.1175  0.3815  0.8061
   7.490   1.4981   0.00968   0.00521  -0.1172  0.3807  0.8064
   7.500   1.4993   0.00968   0.00521  -0.1173  0.3809  0.8066
   7.510   1.4999   0.00969   0.00522  -0.1172  0.3807  0.8068
   7.520   1.5007   0.00970   0.00523  -0.1171  0.3806  0.8070
   7.530   1.5001   0.00974   0.00526  -0.1168  0.3788  0.8073
   7.540   1.5013   0.00974   0.00526  -0.1169  0.3794  0.8076
   7.550   1.5023   0.00974   0.00527  -0.1168  0.3796  0.8079
   7.560   1.5027   0.00976   0.00528  -0.1167  0.3786  0.8080
   7.570   1.5040   0.00975   0.00528  -0.1168  0.3795  0.8082
   7.580   1.5041   0.00978   0.00530  -0.1166  0.3780  0.8084
   7.590   1.5053   0.00978   0.00530  -0.1166  0.3786  0.8088
   7.600   1.5052   0.00980   0.00532  -0.1164  0.3770  0.8089
   7.610   1.5068   0.00979   0.00532  -0.1165  0.3779  0.8092
   7.620   1.5071   0.00981   0.00533  -0.1164  0.3772  0.8095
   7.630   1.5086   0.00980   0.00533  -0.1165  0.3780  0.8096
   7.640   1.5087   0.00983   0.00535  -0.1163  0.3769  0.8099
   7.650   1.5101   0.00982   0.00535  -0.1164  0.3775  0.8101
   7.660   1.5101   0.00985   0.00537  -0.1162  0.3763  0.8103
   7.670   1.5116   0.00984   0.00537  -0.1162  0.3771  0.8105
   7.680   1.5117   0.00986   0.00539  -0.1161  0.3762  0.8108
   7.690   1.5116   0.00989   0.00541  -0.1159  0.3749  0.8109
   7.700   1.5129   0.00989   0.00541  -0.1159  0.3755  0.8111
   7.710   1.5133   0.00990   0.00542  -0.1158  0.3749  0.8112
   7.720   1.5146   0.00990   0.00542  -0.1159  0.3754  0.8116
   7.730   1.5149   0.00992   0.00544  -0.1157  0.3747  0.8118
   7.740   1.5149   0.00995   0.00546  -0.1155  0.3738  0.8120
   7.750   1.5166   0.00993   0.00545  -0.1156  0.3746  0.8121
   7.760   1.5154   0.00999   0.00550  -0.1152  0.3727  0.8124
   7.770   1.5166   0.00999   0.00550  -0.1153  0.3730  0.8124
   7.780   1.5162   0.01002   0.00553  -0.1150  0.3720  0.8127
   7.790   1.5170   0.01003   0.00553  -0.1150  0.3719  0.8129
   7.800   1.5161   0.01008   0.00557  -0.1146  0.3707  0.8131
   7.810   1.5193   0.01003   0.00554  -0.1150  0.3723  0.8133
   7.820   1.5199   0.01004   0.00555  -0.1149  0.3722  0.8134
   7.860   1.5220   0.01010   0.00560  -0.1145  0.3711  0.8141
   7.870   1.5199   0.01017   0.00566  -0.1140  0.3687  0.8143
   7.880   1.5225   0.01013   0.00564  -0.1143  0.3704  0.8145
   7.890   1.5214   0.01019   0.00568  -0.1139  0.3683  0.8145
   7.900   1.5243   0.01015   0.00565  -0.1142  0.3704  0.8149
   7.910   1.5236   0.01019   0.00569  -0.1139  0.3691  0.8149
   7.920   1.5246   0.01019   0.00569  -0.1139  0.3694  0.8151
   7.930   1.5251   0.01021   0.00571  -0.1138  0.3687  0.8153
   7.940   1.5263   0.01020   0.00571  -0.1138  0.3693  0.8155
   7.950   1.5265   0.01023   0.00573  -0.1137  0.3681  0.8155
   7.960   1.5264   0.01026   0.00575  -0.1135  0.3668  0.8158
   7.970   1.5277   0.01025   0.00575  -0.1135  0.3673  0.8159
   7.980   1.5280   0.01027   0.00577  -0.1134  0.3666  0.8160
   7.990   1.5297   0.01026   0.00576  -0.1135  0.3676  0.8162
   8.000   1.5310   0.01025   0.00576  -0.1135  0.3683  0.8163
   8.010   1.5305   0.01029   0.00579  -0.1133  0.3664  0.8165
   8.020   1.5297   0.01034   0.00583  -0.1130  0.3646  0.8167
   8.030   1.5315   0.01032   0.00582  -0.1131  0.3656  0.8168
   8.040   1.5315   0.01035   0.00585  -0.1129  0.3647  0.8170
   8.050   1.5339   0.01032   0.00583  -0.1131  0.3663  0.8171
   8.060   1.5336   0.01035   0.00585  -0.1129  0.3650  0.8172
   8.070   1.5325   0.01040   0.00590  -0.1125  0.3632  0.8174
   8.080   1.5337   0.01040   0.00590  -0.1126  0.3635  0.8175
   8.090   1.5346   0.01041   0.00591  -0.1125  0.3635  0.8176
   8.100   1.5363   0.01039   0.00590  -0.1126  0.3642  0.8178
   8.110   1.5372   0.01040   0.00591  -0.1126  0.3643  0.8179
   8.120   1.5378   0.01041   0.00592  -0.1126  0.3641  0.8181
   8.130   1.5361   0.01048   0.00597  -0.1121  0.3621  0.8183
   8.140   1.5390   0.01044   0.00594  -0.1124  0.3636  0.8183
   8.150   1.5377   0.01050   0.00599  -0.1120  0.3620  0.8186
   8.160   1.5387   0.01050   0.00599  -0.1120  0.3621  0.8187
   8.170   1.5400   0.01049   0.00599  -0.1120  0.3624  0.8188
   8.180   1.5387   0.01055   0.00604  -0.1116  0.3611  0.8189
   8.190   1.5390   0.01057   0.00606  -0.1115  0.3608  0.8192
   8.200   1.5394   0.01059   0.00608  -0.1114  0.3604  0.8192
   8.210   1.5408   0.01058   0.00607  -0.1114  0.3608  0.8194
   8.220   1.5422   0.01057   0.00607  -0.1115  0.3612  0.8196
   8.230   1.5397   0.01066   0.00614  -0.1109  0.3592  0.8197
   8.240   1.5409   0.01066   0.00614  -0.1109  0.3594  0.8198
   8.250   1.5426   0.01065   0.00613  -0.1110  0.3599  0.8200
   8.260   1.5439   0.01064   0.00613  -0.1111  0.3602  0.8200
   8.270   1.5427   0.01070   0.00618  -0.1107  0.3588  0.8203
   8.280   1.5466   0.01063   0.00613  -0.1112  0.3608  0.8204
   8.290   1.5433   0.01074   0.00621  -0.1104  0.3574  0.8206
   8.310   1.5456   0.01073   0.00622  -0.1105  0.3582  0.8208
   8.320   1.5459   0.01075   0.00624  -0.1104  0.3575  0.8209
   8.330   1.5463   0.01077   0.00625  -0.1103  0.3570  0.8212
   8.340   1.5484   0.01075   0.00624  -0.1104  0.3586  0.8212
   8.350   1.5490   0.01076   0.00625  -0.1104  0.3583  0.8215
   8.360   1.5498   0.01077   0.00626  -0.1103  0.3582  0.8215
   8.370   1.5502   0.01079   0.00628  -0.1102  0.3576  0.8216
   8.380   1.5495   0.01083   0.00631  -0.1099  0.3559  0.8218
   8.390   1.5499   0.01085   0.00633  -0.1098  0.3554  0.8220
   8.400   1.5499   0.01088   0.00636  -0.1096  0.3546  0.8221
   8.410   1.5529   0.01083   0.00632  -0.1100  0.3568  0.8222
   8.420   1.5509   0.01091   0.00638  -0.1094  0.3541  0.8223
   8.430   1.5525   0.01090   0.00638  -0.1095  0.3547  0.8226
   8.440   1.5525   0.01093   0.00640  -0.1094  0.3540  0.8226
   8.450   1.5531   0.01094   0.00642  -0.1093  0.3538  0.8228
   8.460   1.5534   0.01096   0.00644  -0.1092  0.3534  0.8229
   8.470   1.5538   0.01098   0.00645  -0.1091  0.3531  0.8231
   8.480   1.5556   0.01096   0.00644  -0.1092  0.3538  0.8231
   8.490   1.5545   0.01102   0.00649  -0.1088  0.3525  0.8234
   8.500   1.5585   0.01095   0.00644  -0.1093  0.3549  0.8234
   8.510   1.5588   0.01097   0.00645  -0.1092  0.3544  0.8235
   8.520   1.5565   0.01105   0.00652  -0.1087  0.3522  0.8237
   8.530   1.5599   0.01100   0.00648  -0.1090  0.3539  0.8237
   8.540   1.5577   0.01108   0.00655  -0.1085  0.3519  0.8239
   8.550   1.5577   0.01111   0.00657  -0.1083  0.3515  0.8241
   8.560   1.5585   0.01111   0.00658  -0.1083  0.3514  0.8242
   8.570   1.5609   0.01108   0.00656  -0.1085  0.3524  0.8243
   8.610   1.5591   0.01124   0.00670  -0.1075  0.3497  0.8249
   8.620   1.5598   0.01125   0.00671  -0.1075  0.3497  0.8251
   8.630   1.5613   0.01124   0.00671  -0.1075  0.3500  0.8252
   8.640   1.5608   0.01128   0.00674  -0.1073  0.3494  0.8253
   8.650   1.5604   0.01131   0.00678  -0.1070  0.3488  0.8255
