  
       XFOIL         Version 6.94
  
 Calculated polar for: 1080                                            
  
 1 1 Reynolds number fixed          Mach number fixed         
  
 xtrf =   1.000 (top)        1.000 (bottom)  
 Mach =   0.000     Re =     2.000 e 6     Ncrit =   9.000
  
  alpha     CL        CD       CDp       CM    Top_Xtr Bot_Xtr
 ------- -------- --------- --------- -------- ------- -------
   6.010   1.4070   0.00741   0.00331  -0.1613  0.5720  0.6237
   6.020   1.4099   0.00739   0.00330  -0.1617  0.5738  0.6240
   6.030   1.4137   0.00736   0.00329  -0.1622  0.5756  0.6242
   6.040   1.4100   0.00741   0.00332  -0.1613  0.5720  0.6244
   6.050   1.4146   0.00737   0.00331  -0.1620  0.5748  0.6247
   6.060   1.4164   0.00737   0.00331  -0.1622  0.5754  0.6249
   6.070   1.4129   0.00742   0.00334  -0.1612  0.5714  0.6251
   6.080   1.4124   0.00744   0.00335  -0.1609  0.5687  0.6253
   6.090   1.4188   0.00738   0.00332  -0.1620  0.5749  0.6255
   6.110   1.4171   0.00743   0.00335  -0.1613  0.5721  0.6260
   6.120   1.4198   0.00741   0.00335  -0.1616  0.5737  0.6263
   6.130   1.4231   0.00739   0.00334  -0.1621  0.5751  0.6264
   6.140   1.4202   0.00744   0.00337  -0.1613  0.5722  0.6267
   6.150   1.4204   0.00745   0.00337  -0.1611  0.5700  0.6269
   6.160   1.4228   0.00743   0.00337  -0.1614  0.5732  0.6271
   6.170   1.4232   0.00744   0.00338  -0.1613  0.5721  0.6273
   6.180   1.4219   0.00747   0.00340  -0.1608  0.5680  0.6276
   6.190   1.4246   0.00745   0.00339  -0.1611  0.5705  0.6278
   6.200   1.4233   0.00749   0.00341  -0.1607  0.5673  0.6280
   6.210   1.4255   0.00747   0.00341  -0.1609  0.5686  0.6283
   6.220   1.4290   0.00745   0.00339  -0.1614  0.5732  0.6286
   6.230   1.4205   0.00758   0.00348  -0.1595  0.5627  0.6287
   6.240   1.4283   0.00748   0.00342  -0.1609  0.5684  0.6290
   6.250   1.4284   0.00750   0.00343  -0.1607  0.5674  0.6293
   6.260   1.4150   0.00773   0.00358  -0.1578  0.5543  0.6294
   6.270   1.4301   0.00751   0.00344  -0.1606  0.5671  0.6298
   6.280   1.4261   0.00758   0.00349  -0.1596  0.5638  0.6301
   6.300   1.4269   0.00761   0.00351  -0.1593  0.5614  0.6306
   6.310   1.4311   0.00756   0.00348  -0.1600  0.5649  0.6309
