  
       XFOIL         Version 6.94
  
 Calculated polar for: 1080                                            
  
 1 1 Reynolds number fixed          Mach number fixed         
  
 xtrf =   1.000 (top)        1.000 (bottom)  
 Mach =   0.000     Re =     2.000 e 6     Ncrit =   9.000
  
  alpha     CL        CD       CDp       CM    Top_Xtr Bot_Xtr
 ------- -------- --------- --------- -------- ------- -------
   6.000   1.4839   0.00879   0.00467  -0.1544  0.5324  0.7846
   6.010   1.4848   0.00879   0.00467  -0.1544  0.5324  0.7847
   6.020   1.4857   0.00879   0.00467  -0.1544  0.5324  0.7847
   6.030   1.4868   0.00880   0.00468  -0.1544  0.5324  0.7847
   6.040   1.4878   0.00880   0.00468  -0.1544  0.5323  0.7847
   6.050   1.4886   0.00880   0.00468  -0.1544  0.5323  0.7847
   6.060   1.4896   0.00880   0.00468  -0.1544  0.5322  0.7847
   6.070   1.4905   0.00880   0.00468  -0.1544  0.5322  0.7847
   6.080   1.4913   0.00880   0.00468  -0.1543  0.5321  0.7848
   6.090   1.4924   0.00881   0.00469  -0.1544  0.5321  0.7848
   6.100   1.4934   0.00881   0.00469  -0.1543  0.5321  0.7848
   6.110   1.4943   0.00881   0.00469  -0.1543  0.5320  0.7848
   6.120   1.4952   0.00881   0.00469  -0.1543  0.5320  0.7848
   6.130   1.4962   0.00881   0.00470  -0.1543  0.5320  0.7848
   6.140   1.4970   0.00881   0.00470  -0.1543  0.5319  0.7849
   6.150   1.4981   0.00882   0.00470  -0.1543  0.5319  0.7849
   6.160   1.4990   0.00882   0.00470  -0.1543  0.5318  0.7849
   6.170   1.5000   0.00882   0.00471  -0.1543  0.5318  0.7849
   6.180   1.5009   0.00882   0.00471  -0.1543  0.5318  0.7849
   6.190   1.5018   0.00883   0.00471  -0.1543  0.5317  0.7849
   6.200   1.5026   0.00883   0.00471  -0.1542  0.5317  0.7849
   6.210   1.5036   0.00883   0.00471  -0.1542  0.5316  0.7850
   6.220   1.5046   0.00883   0.00472  -0.1542  0.5316  0.7850
   6.230   1.5055   0.00883   0.00472  -0.1542  0.5316  0.7850
   6.240   1.5064   0.00883   0.00472  -0.1542  0.5315  0.7850
   6.250   1.5073   0.00884   0.00472  -0.1542  0.5315  0.7850
   6.260   1.5083   0.00884   0.00473  -0.1542  0.5315  0.7850
   6.270   1.5093   0.00884   0.00473  -0.1542  0.5314  0.7851
   6.280   1.5102   0.00884   0.00473  -0.1542  0.5314  0.7851
   6.290   1.5112   0.00885   0.00474  -0.1542  0.5314  0.7851
   6.300   1.5120   0.00885   0.00474  -0.1541  0.5313  0.7851
   6.310   1.5129   0.00885   0.00474  -0.1541  0.5312  0.7851
   6.320   1.5139   0.00885   0.00474  -0.1541  0.5312  0.7851
   6.330   1.5149   0.00885   0.00475  -0.1541  0.5312  0.7852
   6.340   1.5158   0.00886   0.00475  -0.1541  0.5311  0.7852
   6.350   1.5168   0.00886   0.00475  -0.1541  0.5311  0.7852
   6.360   1.5177   0.00886   0.00475  -0.1541  0.5311  0.7852
   6.370   1.5185   0.00886   0.00476  -0.1540  0.5310  0.7852
   6.380   1.5195   0.00886   0.00476  -0.1540  0.5310  0.7852
   6.390   1.5204   0.00887   0.00476  -0.1540  0.5309  0.7853
   6.400   1.5214   0.00887   0.00476  -0.1540  0.5309  0.7853
   6.410   1.5222   0.00887   0.00477  -0.1540  0.5309  0.7853
   6.420   1.5232   0.00887   0.00477  -0.1540  0.5308  0.7853
   6.430   1.5242   0.00888   0.00478  -0.1540  0.5308  0.7853
   6.440   1.5251   0.00888   0.00478  -0.1540  0.5308  0.7853
   6.450   1.5261   0.00888   0.00478  -0.1540  0.5307  0.7853
   6.460   1.5270   0.00888   0.00478  -0.1540  0.5307  0.7854
   6.470   1.5280   0.00889   0.00479  -0.1539  0.5306  0.7854
   6.480   1.5289   0.00889   0.00479  -0.1539  0.5306  0.7854
   6.490   1.5298   0.00889   0.00479  -0.1539  0.5306  0.7854
   6.500   1.5308   0.00889   0.00480  -0.1539  0.5305  0.7854
   6.510   1.5317   0.00890   0.00480  -0.1539  0.5305  0.7855
   6.520   1.5326   0.00890   0.00480  -0.1539  0.5304  0.7855
   6.530   1.5336   0.00890   0.00480  -0.1539  0.5304  0.7855
   6.540   1.5346   0.00891   0.00481  -0.1539  0.5304  0.7855
   6.550   1.5355   0.00891   0.00481  -0.1539  0.5303  0.7855
   6.560   1.5365   0.00891   0.00481  -0.1539  0.5303  0.7855
   6.570   1.5374   0.00891   0.00482  -0.1539  0.5302  0.7856
   6.580   1.5383   0.00892   0.00482  -0.1539  0.5302  0.7856
   6.590   1.5394   0.00892   0.00482  -0.1539  0.5302  0.7856
   6.600   1.5404   0.00892   0.00483  -0.1539  0.5301  0.7856
   6.610   1.5413   0.00893   0.00483  -0.1539  0.5301  0.7856
   6.620   1.5422   0.00893   0.00483  -0.1539  0.5300  0.7856
   6.630   1.5432   0.00893   0.00484  -0.1538  0.5300  0.7857
   6.640   1.5443   0.00894   0.00484  -0.1539  0.5300  0.7857
   6.650   1.5451   0.00894   0.00484  -0.1538  0.5299  0.7857
   6.660   1.5461   0.00894   0.00485  -0.1538  0.5299  0.7857
   6.670   1.5471   0.00895   0.00485  -0.1539  0.5298  0.7857
   6.680   1.5481   0.00895   0.00485  -0.1539  0.5298  0.7857
   6.690   1.5490   0.00895   0.00486  -0.1538  0.5297  0.7858
   6.700   1.5500   0.00896   0.00486  -0.1538  0.5297  0.7858
   6.710   1.5510   0.00896   0.00486  -0.1538  0.5296  0.7858
   6.720   1.5520   0.00897   0.00487  -0.1539  0.5296  0.7858
   6.730   1.5529   0.00897   0.00487  -0.1538  0.5295  0.7858
   6.740   1.5539   0.00897   0.00487  -0.1538  0.5295  0.7858
   6.750   1.5548   0.00898   0.00488  -0.1538  0.5294  0.7859
   6.760   1.5559   0.00898   0.00488  -0.1539  0.5294  0.7859
   6.770   1.5570   0.00898   0.00489  -0.1539  0.5294  0.7859
   6.780   1.5578   0.00899   0.00489  -0.1538  0.5293  0.7859
   6.790   1.5589   0.00899   0.00490  -0.1539  0.5293  0.7859
   6.800   1.5599   0.00900   0.00490  -0.1539  0.5292  0.7859
   6.810   1.5610   0.00900   0.00490  -0.1539  0.5292  0.7860
   6.820   1.5619   0.00901   0.00491  -0.1539  0.5291  0.7860
   6.830   1.5629   0.00901   0.00491  -0.1539  0.5290  0.7860
   6.840   1.5639   0.00901   0.00492  -0.1539  0.5290  0.7860
   6.850   1.5650   0.00902   0.00492  -0.1539  0.5289  0.7860
   6.860   1.5660   0.00902   0.00493  -0.1539  0.5289  0.7860
   6.870   1.5671   0.00903   0.00493  -0.1539  0.5289  0.7861
   6.880   1.5681   0.00903   0.00493  -0.1540  0.5288  0.7861
   6.890   1.5692   0.00904   0.00494  -0.1540  0.5287  0.7861
   6.900   1.5702   0.00905   0.00495  -0.1540  0.5287  0.7861
   6.910   1.5712   0.00905   0.00495  -0.1540  0.5286  0.7861
   6.920   1.5723   0.00906   0.00495  -0.1540  0.5285  0.7862
   6.930   1.5734   0.00906   0.00496  -0.1540  0.5285  0.7862
   6.940   1.5745   0.00907   0.00497  -0.1541  0.5284  0.7862
   6.950   1.5755   0.00907   0.00497  -0.1541  0.5284  0.7862
   6.960   1.5766   0.00908   0.00498  -0.1541  0.5283  0.7862
   6.970   1.5776   0.00908   0.00498  -0.1541  0.5283  0.7862
   6.980   1.5788   0.00909   0.00499  -0.1542  0.5282  0.7863
   6.990   1.5799   0.00910   0.00499  -0.1542  0.5281  0.7863
   7.000   1.5811   0.00910   0.00500  -0.1542  0.5281  0.7863
   7.010   1.5821   0.00911   0.00500  -0.1543  0.5280  0.7863
   7.020   1.5833   0.00912   0.00501  -0.1543  0.5279  0.7863
   7.030   1.5845   0.00912   0.00502  -0.1543  0.5279  0.7863
   7.040   1.5856   0.00913   0.00502  -0.1544  0.5278  0.7863
   7.050   1.5866   0.00914   0.00503  -0.1544  0.5278  0.7864
   7.060   1.5872   0.00914   0.00503  -0.1543  0.5277  0.7864
   7.070   1.5883   0.00914   0.00504  -0.1543  0.5277  0.7864
   7.080   1.5891   0.00914   0.00504  -0.1543  0.5277  0.7864
   7.090   1.5901   0.00915   0.00505  -0.1543  0.5277  0.7864
   7.100   1.5907   0.00915   0.00505  -0.1542  0.5277  0.7865
   7.110   1.5914   0.00915   0.00505  -0.1542  0.5276  0.7865
   7.120   1.5925   0.00915   0.00506  -0.1542  0.5276  0.7865
   7.130   1.5931   0.00915   0.00506  -0.1541  0.5276  0.7865
   7.140   1.5942   0.00916   0.00507  -0.1541  0.5276  0.7866
   7.150   1.5950   0.00916   0.00507  -0.1541  0.5275  0.7866
   7.160   1.5957   0.00916   0.00507  -0.1541  0.5275  0.7866
   7.170   1.5964   0.00916   0.00508  -0.1540  0.5275  0.7866
   7.180   1.5973   0.00917   0.00508  -0.1540  0.5274  0.7866
   7.190   1.5982   0.00917   0.00509  -0.1540  0.5274  0.7867
   7.200   1.5991   0.00917   0.00509  -0.1539  0.5274  0.7867
   7.210   1.5997   0.00917   0.00509  -0.1539  0.5273  0.7867
   7.220   1.6008   0.00918   0.00510  -0.1539  0.5273  0.7867
   7.230   1.6016   0.00918   0.00510  -0.1539  0.5273  0.7867
   7.240   1.6024   0.00918   0.00511  -0.1538  0.5273  0.7868
   7.250   1.6030   0.00918   0.00511  -0.1538  0.5272  0.7868
   7.260   1.6041   0.00919   0.00512  -0.1538  0.5272  0.7868
   7.270   1.6049   0.00919   0.00512  -0.1537  0.5272  0.7868
   7.280   1.6055   0.00919   0.00512  -0.1537  0.5271  0.7869
   7.290   1.6063   0.00919   0.00513  -0.1536  0.5271  0.7869
   7.300   1.6071   0.00920   0.00513  -0.1536  0.5270  0.7869
   7.310   1.6081   0.00920   0.00514  -0.1536  0.5270  0.7869
   7.320   1.6089   0.00920   0.00514  -0.1536  0.5270  0.7869
   7.330   1.6097   0.00920   0.00515  -0.1535  0.5269  0.7870
   7.340   1.6106   0.00921   0.00515  -0.1535  0.5269  0.7870
   7.350   1.6114   0.00921   0.00516  -0.1535  0.5269  0.7870
   7.360   1.6123   0.00921   0.00516  -0.1535  0.5269  0.7870
   7.370   1.6130   0.00921   0.00516  -0.1534  0.5268  0.7871
   7.380   1.6139   0.00922   0.00517  -0.1534  0.5268  0.7871
   7.390   1.6146   0.00922   0.00517  -0.1533  0.5267  0.7871
   7.400   1.6159   0.00923   0.00518  -0.1534  0.5268  0.7871
   7.410   1.6165   0.00923   0.00518  -0.1533  0.5267  0.7871
   7.420   1.6173   0.00923   0.00519  -0.1533  0.5266  0.7872
   7.430   1.6181   0.00923   0.00519  -0.1533  0.5266  0.7872
   7.440   1.6190   0.00924   0.00520  -0.1532  0.5266  0.7872
   7.450   1.6198   0.00924   0.00520  -0.1532  0.5265  0.7872
   7.460   1.6206   0.00924   0.00521  -0.1532  0.5265  0.7873
   7.470   1.6215   0.00924   0.00521  -0.1532  0.5264  0.7873
   7.480   1.6223   0.00925   0.00521  -0.1531  0.5264  0.7873
   7.490   1.6231   0.00925   0.00522  -0.1531  0.5263  0.7873
   7.500   1.6240   0.00925   0.00522  -0.1531  0.5263  0.7873
   7.510   1.6248   0.00925   0.00523  -0.1530  0.5263  0.7874
   7.520   1.6257   0.00926   0.00523  -0.1530  0.5262  0.7874
   7.530   1.6268   0.00926   0.00524  -0.1531  0.5262  0.7874
   7.540   1.6274   0.00926   0.00524  -0.1530  0.5261  0.7874
   7.550   1.6283   0.00927   0.00524  -0.1530  0.5261  0.7875
   7.560   1.6293   0.00927   0.00525  -0.1530  0.5261  0.7875
   7.570   1.6300   0.00927   0.00525  -0.1529  0.5260  0.7875
   7.580   1.6309   0.00928   0.00526  -0.1529  0.5260  0.7875
   7.590   1.6318   0.00928   0.00526  -0.1529  0.5259  0.7875
   7.600   1.6326   0.00928   0.00527  -0.1529  0.5259  0.7876
   7.610   1.6333   0.00928   0.00527  -0.1528  0.5258  0.7876
   7.620   1.6342   0.00929   0.00528  -0.1528  0.5258  0.7876
   7.630   1.6351   0.00929   0.00528  -0.1528  0.5257  0.7876
   7.640   1.6360   0.00929   0.00528  -0.1528  0.5257  0.7877
   7.650   1.6369   0.00930   0.00529  -0.1528  0.5257  0.7877
   7.660   1.6377   0.00930   0.00529  -0.1527  0.5256  0.7877
   7.670   1.6386   0.00930   0.00530  -0.1527  0.5255  0.7877
   7.680   1.6394   0.00930   0.00530  -0.1527  0.5255  0.7877
   7.690   1.6403   0.00931   0.00531  -0.1527  0.5255  0.7878
   7.700   1.6412   0.00931   0.00531  -0.1526  0.5254  0.7878
   7.710   1.6421   0.00931   0.00531  -0.1526  0.5254  0.7878
   7.720   1.6430   0.00932   0.00532  -0.1526  0.5253  0.7878
   7.730   1.6437   0.00932   0.00532  -0.1526  0.5252  0.7879
   7.740   1.6447   0.00932   0.00533  -0.1526  0.5252  0.7879
   7.750   1.6455   0.00932   0.00533  -0.1525  0.5251  0.7879
   7.760   1.6465   0.00933   0.00534  -0.1525  0.5251  0.7879
   7.770   1.6473   0.00933   0.00534  -0.1525  0.5251  0.7880
   7.780   1.6481   0.00933   0.00534  -0.1525  0.5250  0.7880
   7.790   1.6491   0.00934   0.00535  -0.1525  0.5250  0.7880
   7.800   1.6499   0.00934   0.00535  -0.1525  0.5249  0.7880
   7.810   1.6508   0.00934   0.00536  -0.1524  0.5249  0.7880
   7.820   1.6516   0.00934   0.00536  -0.1524  0.5248  0.7881
   7.830   1.6524   0.00935   0.00536  -0.1524  0.5247  0.7881
   7.840   1.6534   0.00935   0.00537  -0.1524  0.5247  0.7881
   7.850   1.6543   0.00936   0.00537  -0.1524  0.5247  0.7881
   7.860   1.6551   0.00936   0.00538  -0.1523  0.5246  0.7882
   7.870   1.6561   0.00936   0.00538  -0.1523  0.5245  0.7882
   7.880   1.6569   0.00936   0.00538  -0.1523  0.5245  0.7882
   7.890   1.6578   0.00937   0.00539  -0.1523  0.5244  0.7882
   7.900   1.6587   0.00937   0.00539  -0.1523  0.5244  0.7883
   7.910   1.6596   0.00937   0.00540  -0.1523  0.5243  0.7883
   7.920   1.6604   0.00938   0.00540  -0.1523  0.5243  0.7883
   7.930   1.6613   0.00938   0.00541  -0.1522  0.5242  0.7883
   7.940   1.6622   0.00938   0.00541  -0.1522  0.5242  0.7884
   7.950   1.6630   0.00938   0.00541  -0.1522  0.5241  0.7884
   7.960   1.6639   0.00939   0.00542  -0.1522  0.5241  0.7884
   7.970   1.6648   0.00939   0.00542  -0.1522  0.5240  0.7884
   7.980   1.6657   0.00939   0.00543  -0.1521  0.5240  0.7884
   7.990   1.6665   0.00940   0.00543  -0.1521  0.5239  0.7885
   8.000   1.6674   0.00940   0.00543  -0.1521  0.5238  0.7885
   8.010   1.6682   0.00940   0.00544  -0.1521  0.5238  0.7885
   8.020   1.6691   0.00941   0.00544  -0.1521  0.5237  0.7885
   8.030   1.6700   0.00941   0.00545  -0.1520  0.5237  0.7886
   8.040   1.6707   0.00941   0.00545  -0.1520  0.5236  0.7886
   8.050   1.6716   0.00941   0.00546  -0.1520  0.5235  0.7886
   8.060   1.6725   0.00942   0.00546  -0.1520  0.5235  0.7886
   8.070   1.6733   0.00942   0.00546  -0.1519  0.5234  0.7887
   8.080   1.6741   0.00942   0.00547  -0.1519  0.5234  0.7887
   8.090   1.6751   0.00943   0.00547  -0.1519  0.5233  0.7887
   8.100   1.6760   0.00943   0.00548  -0.1519  0.5233  0.7887
   8.110   1.6767   0.00943   0.00548  -0.1519  0.5232  0.7888
   8.120   1.6775   0.00944   0.00548  -0.1518  0.5231  0.7888
   8.130   1.6783   0.00944   0.00549  -0.1518  0.5231  0.7888
   8.140   1.6793   0.00944   0.00549  -0.1518  0.5231  0.7888
   8.150   1.6802   0.00945   0.00550  -0.1518  0.5230  0.7889
   8.160   1.6808   0.00945   0.00550  -0.1517  0.5229  0.7889
   8.170   1.6818   0.00945   0.00551  -0.1517  0.5229  0.7889
   8.180   1.6827   0.00946   0.00551  -0.1517  0.5228  0.7889
   8.190   1.6836   0.00946   0.00552  -0.1517  0.5228  0.7890
   8.200   1.6842   0.00946   0.00552  -0.1516  0.5227  0.7890
   8.210   1.6853   0.00947   0.00553  -0.1517  0.5227  0.7890
   8.220   1.6860   0.00947   0.00553  -0.1516  0.5226  0.7890
   8.230   1.6868   0.00947   0.00553  -0.1516  0.5225  0.7890
   8.240   1.6877   0.00948   0.00554  -0.1516  0.5225  0.7891
   8.250   1.6886   0.00948   0.00554  -0.1515  0.5224  0.7891
   8.260   1.6893   0.00948   0.00554  -0.1515  0.5223  0.7891
   8.270   1.6903   0.00949   0.00555  -0.1515  0.5223  0.7891
   8.280   1.6911   0.00949   0.00556  -0.1515  0.5223  0.7892
   8.290   1.6919   0.00949   0.00556  -0.1514  0.5222  0.7892
   8.300   1.6927   0.00950   0.00556  -0.1514  0.5221  0.7892
   8.310   1.6935   0.00950   0.00557  -0.1514  0.5220  0.7892
   8.320   1.6944   0.00950   0.00557  -0.1514  0.5220  0.7893
   8.330   1.6953   0.00951   0.00558  -0.1514  0.5220  0.7893
   8.340   1.6961   0.00951   0.00558  -0.1513  0.5219  0.7893
   8.350   1.6969   0.00951   0.00558  -0.1513  0.5218  0.7893
   8.360   1.6977   0.00952   0.00559  -0.1513  0.5218  0.7894
   8.370   1.6987   0.00952   0.00559  -0.1513  0.5218  0.7894
   8.380   1.6995   0.00952   0.00560  -0.1512  0.5217  0.7894
   8.390   1.7003   0.00953   0.00560  -0.1512  0.5216  0.7894
   8.400   1.7011   0.00953   0.00561  -0.1512  0.5216  0.7895
   8.410   1.7019   0.00954   0.00561  -0.1512  0.5215  0.7895
   8.420   1.7028   0.00954   0.00562  -0.1511  0.5215  0.7895
   8.430   1.7036   0.00954   0.00562  -0.1511  0.5214  0.7895
   8.440   1.7044   0.00955   0.00563  -0.1511  0.5213  0.7896
   8.450   1.7052   0.00955   0.00563  -0.1511  0.5212  0.7896
   8.460   1.7062   0.00956   0.00564  -0.1511  0.5212  0.7896
   8.470   1.7070   0.00956   0.00564  -0.1510  0.5212  0.7896
   8.480   1.7079   0.00956   0.00565  -0.1510  0.5211  0.7897
   8.490   1.7087   0.00957   0.00565  -0.1510  0.5211  0.7897
   8.500   1.7095   0.00957   0.00565  -0.1510  0.5210  0.7897
   8.510   1.7104   0.00958   0.00566  -0.1509  0.5209  0.7897
   8.520   1.7111   0.00958   0.00566  -0.1509  0.5208  0.7898
   8.530   1.7118   0.00958   0.00567  -0.1509  0.5207  0.7898
   8.540   1.7129   0.00959   0.00567  -0.1509  0.5208  0.7898
   8.550   1.7135   0.00959   0.00568  -0.1508  0.5206  0.7898
   8.560   1.7145   0.00960   0.00568  -0.1508  0.5206  0.7899
   8.570   1.7152   0.00960   0.00569  -0.1508  0.5205  0.7899
   8.580   1.7161   0.00961   0.00569  -0.1508  0.5205  0.7899
   8.590   1.7170   0.00961   0.00570  -0.1508  0.5204  0.7899
   8.600   1.7178   0.00962   0.00570  -0.1507  0.5204  0.7900
   8.610   1.7186   0.00962   0.00571  -0.1507  0.5203  0.7900
   8.620   1.7194   0.00963   0.00571  -0.1507  0.5202  0.7900
   8.630   1.7201   0.00963   0.00572  -0.1506  0.5201  0.7900
   8.640   1.7210   0.00964   0.00572  -0.1506  0.5201  0.7901
   8.650   1.7218   0.00964   0.00573  -0.1506  0.5200  0.7901
   8.660   1.7225   0.00965   0.00573  -0.1505  0.5199  0.7901
   8.670   1.7234   0.00965   0.00574  -0.1505  0.5199  0.7901
   8.680   1.7241   0.00966   0.00574  -0.1505  0.5198  0.7902
   8.690   1.7249   0.00966   0.00575  -0.1505  0.5197  0.7902
   8.700   1.7258   0.00967   0.00576  -0.1504  0.5197  0.7902
   8.710   1.7265   0.00968   0.00576  -0.1504  0.5196  0.7902
   8.720   1.7272   0.00968   0.00577  -0.1504  0.5195  0.7903
   8.730   1.7281   0.00969   0.00577  -0.1503  0.5195  0.7903
   8.740   1.7288   0.00969   0.00578  -0.1503  0.5194  0.7903
   8.750   1.7297   0.00970   0.00579  -0.1503  0.5194  0.7903
   8.760   1.7306   0.00970   0.00579  -0.1503  0.5193  0.7904
   8.770   1.7312   0.00971   0.00580  -0.1502  0.5191  0.7904
   8.780   1.7320   0.00972   0.00580  -0.1502  0.5191  0.7904
   8.790   1.7328   0.00973   0.00581  -0.1502  0.5190  0.7904
   8.800   1.7336   0.00973   0.00582  -0.1501  0.5189  0.7905
   8.810   1.7344   0.00974   0.00582  -0.1501  0.5188  0.7905
   8.820   1.7352   0.00975   0.00583  -0.1501  0.5188  0.7905
   8.830   1.7361   0.00975   0.00584  -0.1501  0.5187  0.7905
   8.840   1.7369   0.00976   0.00584  -0.1500  0.5186  0.7906
   8.850   1.7377   0.00977   0.00585  -0.1500  0.5185  0.7906
   8.860   1.7385   0.00978   0.00586  -0.1500  0.5184  0.7906
   8.870   1.7394   0.00978   0.00586  -0.1500  0.5184  0.7906
   8.880   1.7403   0.00979   0.00587  -0.1500  0.5183  0.7907
   8.890   1.7411   0.00980   0.00588  -0.1499  0.5182  0.7907
   8.900   1.7420   0.00980   0.00588  -0.1499  0.5181  0.7907
   8.910   1.7429   0.00981   0.00589  -0.1499  0.5180  0.7907
   8.920   1.7438   0.00982   0.00590  -0.1499  0.5180  0.7907
   8.930   1.7447   0.00983   0.00591  -0.1499  0.5178  0.7908
   8.940   1.7453   0.00983   0.00591  -0.1499  0.5178  0.7908
   8.950   1.7460   0.00984   0.00592  -0.1498  0.5177  0.7908
   8.960   1.7469   0.00984   0.00593  -0.1498  0.5177  0.7908
   8.970   1.7476   0.00985   0.00593  -0.1497  0.5176  0.7909
   8.980   1.7483   0.00985   0.00594  -0.1497  0.5176  0.7909
   8.990   1.7491   0.00986   0.00595  -0.1497  0.5176  0.7909
   9.000   1.7499   0.00986   0.00596  -0.1496  0.5175  0.7909
   9.010   1.7504   0.00987   0.00596  -0.1496  0.5174  0.7910
   9.020   1.7514   0.00987   0.00597  -0.1496  0.5174  0.7910
   9.030   1.7521   0.00988   0.00598  -0.1495  0.5173  0.7910
   9.040   1.7530   0.00988   0.00599  -0.1495  0.5173  0.7910
   9.050   1.7536   0.00989   0.00599  -0.1495  0.5172  0.7911
   9.060   1.7544   0.00989   0.00600  -0.1494  0.5172  0.7911
   9.070   1.7552   0.00990   0.00601  -0.1494  0.5171  0.7911
   9.080   1.7558   0.00990   0.00601  -0.1493  0.5170  0.7911
   9.090   1.7568   0.00991   0.00602  -0.1493  0.5170  0.7912
   9.100   1.7575   0.00991   0.00603  -0.1493  0.5169  0.7912
   9.110   1.7582   0.00992   0.00604  -0.1493  0.5169  0.7912
   9.120   1.7591   0.00992   0.00605  -0.1492  0.5169  0.7912
   9.130   1.7598   0.00993   0.00605  -0.1492  0.5168  0.7912
   9.140   1.7605   0.00993   0.00606  -0.1491  0.5166  0.7913
   9.150   1.7614   0.00994   0.00607  -0.1491  0.5166  0.7913
   9.160   1.7621   0.00994   0.00607  -0.1491  0.5166  0.7913
   9.170   1.7630   0.00995   0.00608  -0.1491  0.5165  0.7913
   9.180   1.7637   0.00995   0.00609  -0.1491  0.5164  0.7914
   9.190   1.7645   0.00996   0.00610  -0.1490  0.5164  0.7914
   9.200   1.7651   0.00996   0.00610  -0.1490  0.5163  0.7914
   9.210   1.7660   0.00997   0.00611  -0.1490  0.5162  0.7914
   9.220   1.7667   0.00998   0.00612  -0.1489  0.5161  0.7915
   9.230   1.7676   0.00998   0.00613  -0.1489  0.5161  0.7915
   9.240   1.7684   0.00999   0.00613  -0.1489  0.5161  0.7915
   9.250   1.7691   0.00999   0.00614  -0.1488  0.5160  0.7915
   9.260   1.7698   0.01000   0.00615  -0.1488  0.5159  0.7915
   9.270   1.7706   0.01000   0.00616  -0.1488  0.5158  0.7916
   9.280   1.7713   0.01001   0.00616  -0.1487  0.5157  0.7916
   9.290   1.7721   0.01002   0.00617  -0.1487  0.5156  0.7916
   9.300   1.7730   0.01002   0.00618  -0.1487  0.5156  0.7916
   9.310   1.7737   0.01003   0.00619  -0.1486  0.5155  0.7917
   9.320   1.7745   0.01003   0.00619  -0.1486  0.5155  0.7917
   9.330   1.7753   0.01004   0.00620  -0.1486  0.5154  0.7917
   9.340   1.7760   0.01004   0.00621  -0.1486  0.5153  0.7917
   9.350   1.7768   0.01005   0.00622  -0.1485  0.5152  0.7917
   9.360   1.7775   0.01005   0.00622  -0.1485  0.5151  0.7918
   9.370   1.7783   0.01006   0.00623  -0.1485  0.5150  0.7918
   9.380   1.7791   0.01007   0.00624  -0.1484  0.5150  0.7918
   9.390   1.7799   0.01007   0.00625  -0.1484  0.5149  0.7918
   9.400   1.7806   0.01008   0.00625  -0.1484  0.5148  0.7918
