  
       XFOIL         Version 6.94
  
 Calculated polar for: 1080                                            
  
 1 1 Reynolds number fixed          Mach number fixed         
  
 xtrf =   1.000 (top)        1.000 (bottom)  
 Mach =   0.000     Re =     2.000 e 6     Ncrit =   9.000
  
  alpha     CL        CD       CDp       CM    Top_Xtr Bot_Xtr
 ------- -------- --------- --------- -------- ------- -------
   6.010   1.1859   0.01043   0.00477  -0.1058  0.2992  0.5267
   6.020   1.1900   0.01037   0.00473  -0.1063  0.3038  0.5269
   6.030   1.1890   0.01041   0.00477  -0.1060  0.3008  0.5271
   6.040   1.1951   0.01030   0.00470  -0.1069  0.3072  0.5273
   6.050   1.1913   0.01041   0.00477  -0.1060  0.3016  0.5275
   6.060   1.1884   0.01050   0.00483  -0.1053  0.2970  0.5274
   6.070   1.1994   0.01028   0.00469  -0.1070  0.3090  0.5280
   6.080   1.1951   0.01040   0.00477  -0.1061  0.3034  0.5280
   6.090   1.1956   0.01041   0.00478  -0.1060  0.3026  0.5281
   6.100   1.1926   0.01051   0.00485  -0.1052  0.2976  0.5282
   6.110   1.1863   0.01069   0.00497  -0.1039  0.2886  0.5280
   6.120   1.1965   0.01047   0.00483  -0.1055  0.3000  0.5287
   6.130   1.1854   0.01077   0.00504  -0.1034  0.2858  0.5284
   6.140   1.1957   0.01054   0.00488  -0.1050  0.2970  0.5289
   6.160   1.1921   0.01068   0.00498  -0.1040  0.2902  0.5292
   6.170   1.2024   0.01046   0.00484  -0.1056  0.3021  0.5296
   6.180   1.1787   0.01110   0.00528  -0.1013  0.2710  0.5288
   6.190   1.1825   0.01103   0.00523  -0.1017  0.2746  0.5291
   6.200   1.2001   0.01059   0.00494  -0.1046  0.2962  0.5300
   6.210   1.1967   0.01071   0.00502  -0.1038  0.2902  0.5301
   6.220   1.1923   0.01085   0.00512  -0.1029  0.2838  0.5300
   6.230   1.1938   0.01084   0.00511  -0.1030  0.2849  0.5302
   6.240   1.1997   0.01072   0.00503  -0.1038  0.2905  0.5305
   6.250   1.1964   0.01083   0.00511  -0.1030  0.2861  0.5306
   6.260   1.1916   0.01099   0.00523  -0.1020  0.2786  0.5304
   6.270   1.1972   0.01087   0.00515  -0.1028  0.2846  0.5309
   6.280   1.2035   0.01073   0.00506  -0.1037  0.2909  0.5313
   6.290   1.2026   0.01079   0.00509  -0.1034  0.2888  0.5315
   6.300   1.1982   0.01093   0.00520  -0.1024  0.2819  0.5315
   6.310   1.1976   0.01098   0.00523  -0.1021  0.2801  0.5316
   6.320   1.1983   0.01099   0.00524  -0.1020  0.2799  0.5319
   6.330   1.1952   0.01111   0.00533  -0.1013  0.2753  0.5319
   6.340   1.1977   0.01107   0.00530  -0.1016  0.2778  0.5321
   6.350   1.2096   0.01078   0.00511  -0.1034  0.2905  0.5327
   6.360   1.1978   0.01113   0.00535  -0.1012  0.2752  0.5324
   6.370   1.1964   0.01119   0.00540  -0.1008  0.2720  0.5326
   6.380   1.2066   0.01095   0.00523  -0.1023  0.2837  0.5330
   6.390   1.1946   0.01131   0.00548  -0.1001  0.2685  0.5329
   6.400   1.2025   0.01112   0.00536  -0.1013  0.2771  0.5333
   6.410   1.1962   0.01132   0.00550  -0.1000  0.2684  0.5331
   6.420   1.2018   0.01120   0.00542  -0.1008  0.2734  0.5335
   6.430   1.2005   0.01126   0.00547  -0.1004  0.2709  0.5335
   6.440   1.2112   0.01100   0.00529  -0.1020  0.2828  0.5342
   6.450   1.2023   0.01128   0.00548  -0.1003  0.2710  0.5341
   6.460   1.2069   0.01118   0.00542  -0.1009  0.2757  0.5343
   6.470   1.2074   0.01120   0.00543  -0.1008  0.2752  0.5345
   6.480   1.2071   0.01124   0.00546  -0.1006  0.2734  0.5347
   6.490   1.2049   0.01133   0.00553  -0.1000  0.2701  0.5348
   6.500   1.1869   0.01187   0.00593  -0.0969  0.2474  0.5341
   6.510   1.2069   0.01134   0.00554  -0.1000  0.2703  0.5350
   6.520   1.1903   0.01184   0.00591  -0.0971  0.2497  0.5346
   6.530   1.2002   0.01158   0.00573  -0.0985  0.2607  0.5352
   6.540   1.2003   0.01161   0.00575  -0.0983  0.2599  0.5353
   6.550   1.2112   0.01134   0.00556  -0.1000  0.2710  0.5359
   6.560   1.2116   0.01136   0.00557  -0.0999  0.2706  0.5361
   6.570   1.2022   0.01166   0.00579  -0.0981  0.2587  0.5358
   6.580   1.1957   0.01188   0.00595  -0.0969  0.2501  0.5356
   6.590   1.1871   0.01216   0.00617  -0.0953  0.2392  0.5356
   6.600   1.2139   0.01142   0.00563  -0.0995  0.2696  0.5366
   6.610   1.1964   0.01195   0.00602  -0.0965  0.2478  0.5361
   6.620   1.2011   0.01185   0.00594  -0.0971  0.2527  0.5365
   6.630   1.2060   0.01174   0.00587  -0.0977  0.2570  0.5369
   6.640   1.1866   0.01234   0.00632  -0.0944  0.2348  0.5363
   6.650   1.2018   0.01193   0.00601  -0.0967  0.2506  0.5370
   6.660   1.2098   0.01173   0.00587  -0.0978  0.2588  0.5374
   6.670   1.2016   0.01200   0.00607  -0.0963  0.2481  0.5373
   6.680   1.2040   0.01196   0.00604  -0.0965  0.2502  0.5374
   6.690   1.1958   0.01223   0.00626  -0.0950  0.2399  0.5373
   6.700   1.1983   0.01219   0.00623  -0.0952  0.2421  0.5376
   6.720   1.1954   0.01235   0.00635  -0.0944  0.2371  0.5377
   6.750   1.2081   0.01207   0.00615  -0.0959  0.2480  0.5387
   6.760   1.2100   0.01204   0.00614  -0.0961  0.2494  0.5390
   6.770   1.2015   0.01233   0.00636  -0.0946  0.2391  0.5387
   6.780   1.2030   0.01232   0.00635  -0.0946  0.2398  0.5390
   6.790   1.2097   0.01215   0.00623  -0.0955  0.2462  0.5394
   6.800   1.1981   0.01254   0.00653  -0.0935  0.2331  0.5391
   6.810   1.2034   0.01241   0.00643  -0.0942  0.2378  0.5397
   6.820   1.2101   0.01224   0.00631  -0.0951  0.2444  0.5400
   6.830   1.2097   0.01228   0.00634  -0.0948  0.2433  0.5402
   6.840   1.2179   0.01207   0.00619  -0.0959  0.2511  0.5408
   6.850   1.1992   0.01268   0.00666  -0.0929  0.2301  0.5401
   6.860   1.2071   0.01246   0.00649  -0.0939  0.2375  0.5407
   6.870   1.2035   0.01261   0.00661  -0.0932  0.2330  0.5406
   6.880   1.2121   0.01238   0.00644  -0.0944  0.2411  0.5411
   6.890   1.2150   0.01233   0.00640  -0.0947  0.2438  0.5414
   6.900   1.2136   0.01240   0.00646  -0.0943  0.2409  0.5417
   6.910   1.2003   0.01286   0.00682  -0.0921  0.2268  0.5412
   6.920   1.2029   0.01281   0.00679  -0.0923  0.2288  0.5416
   6.930   1.2153   0.01245   0.00651  -0.0940  0.2401  0.5422
   6.940   1.2103   0.01264   0.00666  -0.0931  0.2345  0.5423
   6.950   1.2029   0.01291   0.00688  -0.0918  0.2263  0.5420
   6.960   1.2110   0.01269   0.00671  -0.0929  0.2335  0.5427
   6.970   1.2172   0.01253   0.00659  -0.0937  0.2388  0.5432
   6.980   1.2114   0.01275   0.00676  -0.0926  0.2322  0.5429
   6.990   1.2075   0.01291   0.00690  -0.0919  0.2282  0.5430
   7.000   1.2111   0.01283   0.00683  -0.0923  0.2303  0.5434
   7.010   1.2157   0.01272   0.00675  -0.0928  0.2344  0.5438
   7.020   1.2011   0.01324   0.00717  -0.0905  0.2194  0.5432
   7.030   1.2146   0.01282   0.00684  -0.0923  0.2314  0.5441
   7.040   1.2133   0.01290   0.00691  -0.0920  0.2296  0.5442
   7.050   1.2027   0.01330   0.00723  -0.0903  0.2187  0.5438
   7.060   1.2082   0.01315   0.00711  -0.0909  0.2230  0.5443
   7.070   1.2172   0.01289   0.00690  -0.0921  0.2310  0.5449
   7.080   1.2101   0.01316   0.00713  -0.0909  0.2234  0.5449
   7.090   1.2223   0.01279   0.00684  -0.0925  0.2350  0.5456
   7.100   1.2189   0.01294   0.00696  -0.0919  0.2305  0.5457
   7.110   1.2080   0.01335   0.00730  -0.0901  0.2197  0.5454
   7.120   1.2102   0.01331   0.00727  -0.0903  0.2211  0.5456
   7.130   1.2075   0.01345   0.00739  -0.0898  0.2174  0.5456
   7.140   1.2032   0.01364   0.00755  -0.0890  0.2133  0.5458
   7.150   1.2158   0.01323   0.00722  -0.0906  0.2239  0.5466
   7.160   1.2189   0.01317   0.00716  -0.0909  0.2264  0.5467
   7.170   1.2157   0.01331   0.00729  -0.0903  0.2225  0.5469
   7.180   1.2109   0.01353   0.00747  -0.0895  0.2172  0.5469
   7.190   1.2245   0.01309   0.00711  -0.0913  0.2295  0.5476
   7.200   1.2123   0.01356   0.00750  -0.0894  0.2172  0.5473
   7.210   1.2226   0.01323   0.00724  -0.0907  0.2264  0.5481
   7.220   1.2173   0.01346   0.00743  -0.0898  0.2210  0.5481
   7.230   1.2190   0.01344   0.00741  -0.0899  0.2216  0.5482
   7.240   1.2197   0.01345   0.00743  -0.0898  0.2215  0.5485
   7.250   1.2245   0.01332   0.00732  -0.0904  0.2253  0.5487
   7.260   1.2212   0.01348   0.00746  -0.0898  0.2216  0.5489
   7.270   1.2271   0.01331   0.00732  -0.0904  0.2265  0.5493
   7.280   1.2125   0.01389   0.00781  -0.0883  0.2125  0.5488
   7.290   1.2207   0.01362   0.00759  -0.0893  0.2191  0.5494
   7.300   1.2278   0.01341   0.00741  -0.0901  0.2248  0.5498
   7.310   1.2155   0.01390   0.00784  -0.0883  0.2134  0.5496
   7.320   1.2129   0.01405   0.00796  -0.0878  0.2098  0.5496
   7.330   1.2168   0.01394   0.00788  -0.0882  0.2132  0.5499
   7.340   1.2080   0.01435   0.00822  -0.0869  0.2043  0.5497
   7.350   1.2133   0.01417   0.00808  -0.0875  0.2083  0.5501
   7.360   1.2332   0.01345   0.00747  -0.0900  0.2259  0.5513
   7.370   1.2218   0.01392   0.00787  -0.0883  0.2147  0.5510
   7.380   1.2202   0.01403   0.00797  -0.0879  0.2130  0.5512
   7.390   1.2185   0.01414   0.00807  -0.0876  0.2105  0.5511
   7.400   1.2118   0.01447   0.00836  -0.0866  0.2038  0.5511
   7.410   1.2224   0.01408   0.00802  -0.0878  0.2131  0.5517
   7.420   1.2303   0.01381   0.00780  -0.0887  0.2195  0.5525
   7.430   1.2331   0.01375   0.00775  -0.0890  0.2214  0.5527
   7.440   1.2237   0.01416   0.00811  -0.0876  0.2123  0.5524
   7.450   1.2151   0.01457   0.00847  -0.0864  0.2036  0.5519
   7.460   1.2364   0.01375   0.00776  -0.0890  0.2221  0.5537
   7.470   1.2274   0.01415   0.00811  -0.0877  0.2137  0.5533
   7.480   1.2113   0.01490   0.00877  -0.0856  0.1984  0.5526
   7.490   1.2263   0.01429   0.00824  -0.0873  0.2112  0.5538
   7.500   1.2360   0.01394   0.00794  -0.0884  0.2195  0.5542
   7.510   1.2192   0.01469   0.00860  -0.0862  0.2035  0.5537
   7.520   1.2257   0.01446   0.00840  -0.0868  0.2085  0.5540
   7.530   1.2230   0.01463   0.00855  -0.0864  0.2060  0.5543
   7.540   1.2303   0.01436   0.00832  -0.0871  0.2117  0.5550
   7.550   1.2324   0.01432   0.00829  -0.0873  0.2133  0.5553
   7.560   1.2151   0.01515   0.00902  -0.0851  0.1965  0.5545
   7.570   1.2167   0.01513   0.00901  -0.0852  0.1974  0.5549
   7.580   1.2184   0.01510   0.00899  -0.0853  0.1986  0.5552
   7.590   1.2252   0.01484   0.00876  -0.0859  0.2038  0.5556
   7.600   1.2382   0.01431   0.00830  -0.0873  0.2148  0.5566
   7.610   1.2239   0.01500   0.00891  -0.0855  0.2011  0.5559
   7.620   1.2147   0.01552   0.00937  -0.0844  0.1923  0.5559
   7.630   1.2280   0.01492   0.00885  -0.0858  0.2037  0.5566
   7.640   1.2327   0.01475   0.00870  -0.0862  0.2074  0.5570
   7.650   1.2184   0.01550   0.00937  -0.0845  0.1934  0.5566
   7.660   1.2321   0.01489   0.00883  -0.0859  0.2059  0.5577
   7.670   1.2311   0.01499   0.00892  -0.0857  0.2041  0.5579
   7.680   1.2005   0.01666   0.01041  -0.0823  0.1738  0.5564
   7.690   1.2341   0.01495   0.00890  -0.0858  0.2058  0.5582
   7.700   1.2252   0.01545   0.00934  -0.0847  0.1965  0.5579
   7.710   1.2049   0.01660   0.01037  -0.0825  0.1760  0.5572
   7.720   1.2307   0.01529   0.00920  -0.0850  0.2004  0.5585
   7.730   1.2335   0.01520   0.00914  -0.0852  0.2022  0.5592
   7.740   1.2281   0.01553   0.00943  -0.0845  0.1968  0.5589
   7.750   1.2089   0.01664   0.01041  -0.0825  0.1773  0.5584
   7.760   1.2234   0.01590   0.00977  -0.0838  0.1910  0.5593
   7.770   1.2320   0.01551   0.00942  -0.0846  0.1987  0.5598
   7.780   1.2281   0.01578   0.00966  -0.0841  0.1938  0.5595
   7.790   1.2274   0.01588   0.00975  -0.0839  0.1927  0.5599
   7.800   1.2260   0.01601   0.00988  -0.0837  0.1907  0.5602
   7.810   1.2410   0.01529   0.00924  -0.0852  0.2041  0.5609
   7.820   1.2421   0.01529   0.00924  -0.0852  0.2045  0.5612
   7.830   1.2397   0.01547   0.00941  -0.0848  0.2014  0.5612
   7.840   1.2142   0.01692   0.01070  -0.0821  0.1759  0.5603
   7.850   1.2331   0.01594   0.00983  -0.0839  0.1938  0.5613
   7.860   1.2268   0.01635   0.01020  -0.0832  0.1869  0.5612
   7.870   1.2390   0.01574   0.00967  -0.0843  0.1986  0.5620
   7.880   1.2309   0.01625   0.01012  -0.0834  0.1896  0.5618
   7.890   1.2289   0.01642   0.01027  -0.0831  0.1870  0.5619
   7.920   1.2170   0.01729   0.01106  -0.0816  0.1730  0.5619
   7.950   1.2402   0.01618   0.01008  -0.0836  0.1937  0.5636
   7.960   1.2057   0.01818   0.01187  -0.0801  0.1586  0.5622
   7.970   1.2375   0.01646   0.01034  -0.0832  0.1896  0.5638
   7.980   1.2085   0.01816   0.01185  -0.0802  0.1602  0.5626
   7.990   1.2224   0.01744   0.01122  -0.0815  0.1732  0.5634
   8.000   1.2401   0.01650   0.01039  -0.0831  0.1900  0.5644
   8.010   1.2218   0.01760   0.01137  -0.0812  0.1712  0.5639
   8.020   1.2017   0.01879   0.01243  -0.0791  0.1502  0.5633
   8.030   1.2344   0.01701   0.01086  -0.0823  0.1822  0.5650
   8.040   1.2229   0.01773   0.01150  -0.0810  0.1701  0.5645
   8.050   1.2346   0.01713   0.01098  -0.0821  0.1809  0.5654
   8.060   1.2293   0.01749   0.01130  -0.0815  0.1750  0.5652
   8.070   1.2401   0.01695   0.01082  -0.0824  0.1853  0.5659
   8.080   1.1892   0.01988   0.01342  -0.0773  0.1334  0.5637
   8.090   1.2257   0.01789   0.01166  -0.0808  0.1692  0.5657
   8.100   1.2201   0.01827   0.01200  -0.0802  0.1629  0.5655
   8.110   1.1882   0.02012   0.01365  -0.0769  0.1302  0.5646
   8.120   1.2407   0.01724   0.01110  -0.0820  0.1819  0.5668
   8.130   1.2307   0.01787   0.01166  -0.0809  0.1716  0.5666
   8.140   1.2239   0.01832   0.01206  -0.0802  0.1638  0.5666
   8.150   1.2191   0.01865   0.01236  -0.0796  0.1585  0.5665
   8.160   1.2272   0.01826   0.01202  -0.0803  0.1660  0.5673
   8.170   1.2462   0.01725   0.01113  -0.0821  0.1840  0.5683
   8.180   1.2299   0.01824   0.01201  -0.0804  0.1671  0.5679
   8.190   1.2337   0.01809   0.01188  -0.0806  0.1701  0.5681
   8.200   1.2419   0.01769   0.01153  -0.0813  0.1776  0.5687
   8.210   1.2250   0.01871   0.01244  -0.0796  0.1603  0.5683
   8.220   1.2281   0.01860   0.01234  -0.0798  0.1624  0.5686
   8.230   1.2247   0.01885   0.01257  -0.0794  0.1585  0.5686
   8.240   1.2014   0.02022   0.01379  -0.0770  0.1345  0.5677
   8.250   1.2508   0.01751   0.01139  -0.0817  0.1827  0.5703
   8.260   1.2346   0.01849   0.01226  -0.0800  0.1664  0.5696
   8.270   1.1984   0.02057   0.01412  -0.0764  0.1296  0.5683
   8.280   1.2256   0.01912   0.01283  -0.0790  0.1558  0.5697
