  
       XFOIL         Version 6.94
  
 Calculated polar for: 1080                                            
  
 1 1 Reynolds number fixed          Mach number fixed         
  
 xtrf =   1.000 (top)        1.000 (bottom)  
 Mach =   0.000     Re =     2.000 e 6     Ncrit =   9.000
  
  alpha     CL        CD       CDp       CM    Top_Xtr Bot_Xtr
 ------- -------- --------- --------- -------- ------- -------
   6.000   1.5107   0.01195   0.00680  -0.1752  0.3998  0.4926
   6.010   1.5012   0.01227   0.00708  -0.1735  0.3926  0.4925
   6.020   1.5080   0.01210   0.00694  -0.1744  0.3963  0.4928
   6.030   1.5001   0.01237   0.00718  -0.1730  0.3915  0.4927
   6.040   1.5146   0.01197   0.00683  -0.1752  0.4005  0.4933
   6.050   1.4994   0.01246   0.00726  -0.1726  0.3900  0.4928
   6.060   1.5045   0.01234   0.00716  -0.1732  0.3924  0.4932
   6.070   1.5062   0.01233   0.00715  -0.1733  0.3929  0.4934
   6.080   1.5052   0.01239   0.00721  -0.1730  0.3921  0.4934
   6.090   1.4984   0.01264   0.00743  -0.1718  0.3872  0.4933
   6.100   1.5130   0.01222   0.00707  -0.1739  0.3956  0.4939
   6.110   1.5038   0.01254   0.00735  -0.1723  0.3901  0.4937
   6.120   1.5075   0.01246   0.00728  -0.1727  0.3918  0.4938
   6.130   1.5092   0.01245   0.00727  -0.1728  0.3922  0.4941
   6.140   1.5118   0.01240   0.00724  -0.1731  0.3931  0.4942
   6.150   1.4929   0.01306   0.00783  -0.1700  0.3823  0.4938
   6.160   1.5058   0.01266   0.00748  -0.1718  0.3889  0.4942
   6.170   1.4990   0.01293   0.00772  -0.1706  0.3844  0.4941
   6.180   1.5056   0.01274   0.00755  -0.1715  0.3878  0.4945
   6.190   1.5022   0.01289   0.00770  -0.1708  0.3854  0.4944
   6.200   1.4976   0.01309   0.00788  -0.1700  0.3829  0.4946
   6.210   1.5058   0.01285   0.00766  -0.1711  0.3867  0.4949
   6.220   1.4917   0.01339   0.00816  -0.1688  0.3792  0.4946
   6.230   1.4971   0.01324   0.00802  -0.1695  0.3820  0.4948
   6.240   1.5041   0.01303   0.00783  -0.1703  0.3846  0.4951
   6.250   1.5036   0.01309   0.00789  -0.1701  0.3841  0.4952
   6.260   1.5037   0.01313   0.00793  -0.1700  0.3838  0.4954
   6.270   1.5117   0.01289   0.00771  -0.1710  0.3878  0.4958
   6.280   1.5102   0.01298   0.00780  -0.1707  0.3865  0.4958
   6.290   1.5068   0.01314   0.00795  -0.1700  0.3844  0.4958
   6.300   1.5012   0.01338   0.00818  -0.1691  0.3819  0.4956
   6.310   1.5122   0.01303   0.00785  -0.1705  0.3865  0.4962
   6.320   1.4878   0.01403   0.00879  -0.1670  0.3745  0.4955
   6.330   1.5015   0.01350   0.00830  -0.1687  0.3811  0.4961
   6.340   1.5017   0.01355   0.00834  -0.1685  0.3808  0.4964
   6.350   1.4969   0.01379   0.00857  -0.1678  0.3778  0.4961
   6.360   1.4990   0.01375   0.00854  -0.1679  0.3786  0.4963
   6.370   1.4872   0.01432   0.00910  -0.1663  0.3734  0.4959
   6.380   1.4857   0.01446   0.00923  -0.1660  0.3729  0.4961
   6.390   1.4909   0.01426   0.00904  -0.1665  0.3743  0.4963
   6.400   1.4985   0.01396   0.00876  -0.1673  0.3773  0.4968
   6.410   1.4997   0.01396   0.00876  -0.1673  0.3776  0.4970
   6.420   1.4977   0.01411   0.00890  -0.1670  0.3764  0.4970
   6.430   1.4893   0.01458   0.00936  -0.1658  0.3732  0.4969
   6.440   1.4991   0.01415   0.00895  -0.1669  0.3766  0.4972
   6.450   1.4989   0.01421   0.00901  -0.1668  0.3763  0.4974
   6.460   1.4957   0.01442   0.00922  -0.1663  0.3748  0.4975
   6.470   1.4850   0.01516   0.00994  -0.1651  0.3704  0.4971
   6.480   1.4810   0.01562   0.01040  -0.1648  0.3674  0.4971
   6.490   1.4847   0.01540   0.01018  -0.1650  0.3693  0.4973
   6.500   1.4546   0.01762   0.01232  -0.1622  0.3536  0.4963
   6.510   1.5076   0.01413   0.00895  -0.1671  0.3790  0.4984
   6.520   1.4840   0.01578   0.01056  -0.1648  0.3676  0.4976
   6.530   1.4896   0.01538   0.01018  -0.1651  0.3709  0.4978
   6.540   1.4896   0.01549   0.01029  -0.1651  0.3704  0.4980
   6.550   1.4908   0.01549   0.01029  -0.1651  0.3708  0.4983
   6.560   1.4974   0.01501   0.00983  -0.1655  0.3738  0.4986
   6.570   1.4851   0.01615   0.01094  -0.1646  0.3663  0.4982
   6.580   1.4823   0.01645   0.01122  -0.1642  0.3647  0.4983
   6.590   1.4873   0.01616   0.01095  -0.1646  0.3668  0.4986
   6.600   1.4762   0.01701   0.01177  -0.1635  0.3611  0.4984
   6.620   1.4948   0.01585   0.01066  -0.1650  0.3704  0.4990
   6.630   1.5021   0.01531   0.01014  -0.1654  0.3740  0.4995
   6.640   1.4929   0.01618   0.01099  -0.1647  0.3683  0.4993
   6.650   1.4752   0.01744   0.01220  -0.1629  0.3589  0.4987
   6.660   1.4880   0.01670   0.01149  -0.1641  0.3651  0.4994
   6.670   1.4961   0.01621   0.01102  -0.1648  0.3690  0.4996
   6.690   1.4845   0.01716   0.01194  -0.1635  0.3630  0.4994
   6.700   1.4811   0.01744   0.01221  -0.1630  0.3607  0.4995
   6.710   1.4877   0.01710   0.01189  -0.1636  0.3638  0.5000
   6.720   1.4787   0.01772   0.01249  -0.1626  0.3588  0.4997
   6.730   1.4800   0.01771   0.01248  -0.1626  0.3592  0.4996
   6.740   1.4743   0.01812   0.01287  -0.1619  0.3563  0.4998
   6.750   1.4784   0.01795   0.01271  -0.1623  0.3579  0.5000
   6.760   1.4677   0.01863   0.01336  -0.1610  0.3534  0.4998
   6.770   1.4838   0.01776   0.01254  -0.1626  0.3601  0.5002
   6.780   1.4822   0.01793   0.01271  -0.1624  0.3589  0.5004
   6.790   1.4864   0.01775   0.01253  -0.1627  0.3610  0.5006
   6.800   1.4952   0.01729   0.01210  -0.1635  0.3648  0.5009
   6.810   1.4667   0.01901   0.01374  -0.1604  0.3512  0.5002
   6.820   1.4798   0.01835   0.01311  -0.1617  0.3569  0.5006
   6.830   1.4853   0.01809   0.01287  -0.1622  0.3593  0.5008
   6.840   1.4806   0.01843   0.01320  -0.1616  0.3568  0.5009
   6.850   1.4690   0.01914   0.01388  -0.1602  0.3514  0.5005
   6.860   1.4820   0.01848   0.01325  -0.1615  0.3570  0.5011
   6.870   1.4632   0.01960   0.01432  -0.1593  0.3480  0.5006
   6.880   1.4713   0.01921   0.01395  -0.1601  0.3518  0.5009
   6.890   1.4606   0.01987   0.01458  -0.1589  0.3465  0.5006
   6.900   1.4784   0.01895   0.01371  -0.1607  0.3547  0.5013
   6.910   1.4685   0.01956   0.01430  -0.1595  0.3496  0.5011
   6.920   1.4747   0.01928   0.01403  -0.1601  0.3527  0.5014
   6.940   1.4928   0.01840   0.01321  -0.1619  0.3602  0.5023
   6.950   1.4461   0.02102   0.01568  -0.1566  0.3377  0.5009
   6.960   1.4859   0.01892   0.01371  -0.1609  0.3564  0.5023
   6.970   1.4843   0.01908   0.01385  -0.1606  0.3556  0.5022
   6.980   1.4847   0.01911   0.01390  -0.1606  0.3555  0.5024
   6.990   1.4706   0.01996   0.01470  -0.1589  0.3486  0.5019
   7.000   1.4703   0.02004   0.01478  -0.1588  0.3483  0.5020
   7.010   1.4781   0.01968   0.01444  -0.1595  0.3521  0.5025
   7.020   1.4842   0.01940   0.01419  -0.1601  0.3546  0.5028
   7.030   1.4873   0.01929   0.01408  -0.1604  0.3556  0.5031
   7.040   1.4752   0.02003   0.01478  -0.1589  0.3497  0.5028
   7.050   1.4633   0.02072   0.01544  -0.1575  0.3443  0.5025
   7.060   1.4790   0.01994   0.01471  -0.1591  0.3512  0.5033
   7.070   1.4702   0.02048   0.01522  -0.1580  0.3465  0.5031
   7.080   1.4625   0.02096   0.01567  -0.1571  0.3429  0.5025
   7.090   1.4789   0.02014   0.01491  -0.1588  0.3503  0.5035
   7.100   1.4636   0.02102   0.01574  -0.1570  0.3430  0.5029
   7.110   1.4703   0.02073   0.01547  -0.1576  0.3457  0.5034
   7.120   1.4837   0.02007   0.01485  -0.1590  0.3522  0.5039
   7.130   1.4668   0.02104   0.01577  -0.1570  0.3440  0.5035
   7.140   1.4695   0.02096   0.01569  -0.1572  0.3450  0.5037
   7.150   1.4667   0.02117   0.01590  -0.1568  0.3433  0.5035
   7.160   1.4834   0.02034   0.01512  -0.1586  0.3507  0.5043
   7.170   1.4695   0.02115   0.01589  -0.1569  0.3444  0.5041
   7.180   1.4594   0.02175   0.01646  -0.1557  0.3384  0.5039
   7.190   1.4633   0.02161   0.01633  -0.1560  0.3401  0.5040
   7.200   1.4663   0.02151   0.01624  -0.1563  0.3416  0.5043
   7.210   1.4679   0.02149   0.01622  -0.1563  0.3422  0.5044
   7.220   1.4560   0.02218   0.01687  -0.1549  0.3360  0.5039
   7.230   1.4654   0.02174   0.01647  -0.1558  0.3401  0.5045
   7.240   1.4780   0.02113   0.01590  -0.1571  0.3462  0.5050
   7.250   1.4666   0.02180   0.01653  -0.1558  0.3402  0.5047
   7.260   1.4685   0.02176   0.01650  -0.1559  0.3411  0.5051
   7.270   1.4702   0.02174   0.01648  -0.1560  0.3417  0.5053
   7.280   1.4703   0.02179   0.01653  -0.1559  0.3415  0.5051
   7.290   1.4598   0.02241   0.01712  -0.1546  0.3359  0.5051
   7.300   1.4561   0.02267   0.01736  -0.1541  0.3334  0.5050
   7.310   1.4629   0.02237   0.01709  -0.1547  0.3368  0.5053
   7.320   1.4525   0.02299   0.01767  -0.1535  0.3306  0.5050
   7.330   1.4499   0.02320   0.01787  -0.1531  0.3289  0.5050
   7.340   1.4719   0.02208   0.01683  -0.1554  0.3404  0.5059
   7.350   1.4561   0.02299   0.01767  -0.1536  0.3317  0.5054
   7.360   1.4576   0.02297   0.01766  -0.1536  0.3324  0.5055
   7.370   1.4647   0.02265   0.01736  -0.1543  0.3361  0.5061
   7.380   1.4567   0.02314   0.01783  -0.1533  0.3312  0.5057
   7.390   1.4610   0.02297   0.01767  -0.1537  0.3335  0.5058
   7.400   1.4664   0.02274   0.01747  -0.1542  0.3361  0.5066
   7.410   1.4668   0.02279   0.01751  -0.1541  0.3361  0.5065
   7.420   1.4629   0.02306   0.01777  -0.1536  0.3338  0.5066
   7.430   1.4753   0.02246   0.01721  -0.1549  0.3395  0.5070
   7.440   1.4618   0.02325   0.01795  -0.1533  0.3324  0.5067
   7.450   1.4587   0.02348   0.01817  -0.1528  0.3303  0.5067
   7.460   1.4496   0.02403   0.01869  -0.1517  0.3255  0.5063
   7.470   1.4503   0.02406   0.01871  -0.1517  0.3257  0.5066
   7.480   1.4637   0.02339   0.01810  -0.1531  0.3323  0.5071
   7.490   1.4478   0.02432   0.01896  -0.1512  0.3229  0.5068
   7.500   1.4585   0.02380   0.01849  -0.1523  0.3287  0.5072
   7.510   1.4563   0.02398   0.01866  -0.1520  0.3274  0.5073
   7.520   1.4644   0.02361   0.01832  -0.1527  0.3314  0.5077
   7.530   1.4556   0.02415   0.01882  -0.1517  0.3266  0.5075
   7.540   1.4622   0.02385   0.01855  -0.1523  0.3295  0.5077
   7.550   1.4636   0.02384   0.01855  -0.1524  0.3299  0.5080
   7.560   1.4630   0.02394   0.01864  -0.1522  0.3293  0.5079
   7.570   1.4518   0.02460   0.01926  -0.1509  0.3224  0.5077
   7.580   1.4482   0.02486   0.01950  -0.1504  0.3196  0.5077
   7.590   1.4601   0.02428   0.01897  -0.1516  0.3271  0.5082
   7.600   1.4621   0.02423   0.01893  -0.1517  0.3277  0.5083
   7.610   1.4565   0.02460   0.01927  -0.1510  0.3241  0.5085
   7.620   1.4548   0.02475   0.01941  -0.1507  0.3224  0.5084
   7.630   1.4512   0.02502   0.01966  -0.1502  0.3197  0.5085
   7.640   1.4617   0.02450   0.01919  -0.1512  0.3265  0.5088
   7.650   1.4299   0.02632   0.02087  -0.1478  0.3064  0.5077
   7.660   1.4659   0.02441   0.01911  -0.1515  0.3278  0.5092
   7.670   1.4587   0.02486   0.01953  -0.1506  0.3231  0.5091
   7.680   1.4625   0.02471   0.01940  -0.1509  0.3257  0.5094
   7.690   1.4587   0.02498   0.01965  -0.1504  0.3223  0.5093
   7.700   1.4632   0.02480   0.01949  -0.1508  0.3253  0.5096
   7.710   1.4601   0.02503   0.01970  -0.1504  0.3223  0.5095
   7.720   1.4647   0.02485   0.01953  -0.1508  0.3255  0.5097
   7.730   1.4585   0.02525   0.01991  -0.1500  0.3206  0.5096
   7.740   1.4497   0.02581   0.02043  -0.1490  0.3158  0.5093
   7.750   1.4588   0.02537   0.02003  -0.1498  0.3202  0.5098
   7.760   1.4476   0.02605   0.02067  -0.1486  0.3133  0.5097
   7.770   1.4609   0.02538   0.02004  -0.1499  0.3209  0.5102
   7.780   1.4652   0.02520   0.01988  -0.1502  0.3233  0.5105
   7.790   1.4618   0.02546   0.02013  -0.1497  0.3207  0.5104
   7.800   1.4612   0.02555   0.02022  -0.1496  0.3201  0.5108
   7.810   1.4532   0.02606   0.02069  -0.1487  0.3155  0.5105
   7.820   1.4589   0.02581   0.02047  -0.1492  0.3184  0.5109
   7.830   1.4620   0.02571   0.02037  -0.1494  0.3196  0.5110
   7.840   1.4555   0.02613   0.02077  -0.1486  0.3159  0.5108
   7.850   1.4525   0.02636   0.02098  -0.1482  0.3131  0.5108
   7.860   1.4534   0.02638   0.02100  -0.1482  0.3133  0.5110
   7.870   1.4498   0.02664   0.02125  -0.1477  0.3104  0.5109
   7.880   1.4482   0.02679   0.02139  -0.1474  0.3093  0.5110
   7.890   1.4545   0.02651   0.02113  -0.1480  0.3128  0.5114
   7.900   1.4672   0.02587   0.02055  -0.1492  0.3204  0.5118
   7.910   1.4554   0.02659   0.02121  -0.1479  0.3125  0.5115
   7.920   1.4597   0.02641   0.02106  -0.1483  0.3156  0.5119
   7.930   1.4619   0.02635   0.02101  -0.1484  0.3169  0.5118
   7.940   1.4614   0.02645   0.02110  -0.1482  0.3159  0.5122
   7.950   1.4624   0.02645   0.02111  -0.1482  0.3164  0.5122
   7.960   1.4560   0.02687   0.02149  -0.1475  0.3109  0.5121
   7.970   1.4553   0.02698   0.02159  -0.1473  0.3101  0.5121
   7.980   1.4503   0.02732   0.02191  -0.1467  0.3066  0.5121
   7.990   1.4435   0.02777   0.02232  -0.1459  0.3010  0.5120
   8.000   1.4564   0.02711   0.02172  -0.1471  0.3097  0.5125
   8.010   1.4515   0.02745   0.02204  -0.1465  0.3060  0.5124
   8.020   1.4571   0.02720   0.02181  -0.1470  0.3094  0.5127
   8.030   1.4552   0.02737   0.02197  -0.1467  0.3081  0.5127
   8.040   1.4541   0.02750   0.02209  -0.1465  0.3067  0.5128
   8.080   1.4516   0.02790   0.02248  -0.1459  0.3028  0.5129
   8.090   1.4407   0.02859   0.02312  -0.1447  0.2953  0.5128
   8.100   1.4579   0.02767   0.02228  -0.1463  0.3069  0.5135
   8.110   1.4587   0.02769   0.02230  -0.1463  0.3071  0.5136
   8.120   1.4431   0.02866   0.02319  -0.1446  0.2957  0.5131
   8.130   1.4447   0.02863   0.02317  -0.1447  0.2966  0.5133
   8.140   1.4515   0.02831   0.02288  -0.1453  0.3007  0.5137
   8.150   1.4563   0.02810   0.02269  -0.1457  0.3033  0.5140
   8.160   1.4491   0.02858   0.02314  -0.1449  0.2989  0.5140
   8.170   1.4618   0.02791   0.02253  -0.1461  0.3067  0.5146
   8.180   1.4528   0.02850   0.02307  -0.1451  0.3001  0.5139
   8.190   1.4598   0.02816   0.02277  -0.1457  0.3041  0.5146
   8.200   1.4688   0.02772   0.02236  -0.1465  0.3097  0.5150
   8.210   1.4527   0.02871   0.02328  -0.1448  0.2992  0.5145
   8.220   1.4529   0.02876   0.02333  -0.1447  0.2991  0.5148
   8.230   1.4661   0.02807   0.02269  -0.1460  0.3075  0.5153
   8.240   1.4571   0.02865   0.02324  -0.1450  0.3006  0.5151
   8.250   1.4509   0.02908   0.02363  -0.1442  0.2957  0.5149
   8.260   1.4571   0.02879   0.02337  -0.1448  0.2999  0.5153
   8.270   1.4512   0.02920   0.02375  -0.1441  0.2948  0.5153
   8.280   1.4600   0.02876   0.02335  -0.1449  0.3009  0.5156
   8.290   1.4541   0.02917   0.02373  -0.1442  0.2963  0.5156
   8.300   1.4544   0.02921   0.02377  -0.1441  0.2960  0.5157
   8.310   1.4565   0.02916   0.02373  -0.1443  0.2975  0.5158
   8.320   1.4536   0.02940   0.02395  -0.1439  0.2942  0.5157
   8.330   1.4580   0.02921   0.02378  -0.1442  0.2977  0.5161
   8.340   1.4469   0.02993   0.02444  -0.1430  0.2882  0.5159
   8.360   1.4396   0.03052   0.02498  -0.1421  0.2813  0.5154
   8.370   1.4631   0.02918   0.02377  -0.1444  0.2996  0.5167
   8.380   1.4444   0.03037   0.02485  -0.1424  0.2835  0.5160
   8.390   1.4610   0.02944   0.02401  -0.1440  0.2969  0.5167
   8.400   1.4524   0.03002   0.02454  -0.1430  0.2899  0.5167
   8.410   1.4636   0.02942   0.02401  -0.1441  0.2983  0.5172
   8.420   1.4261   0.03185   0.02620  -0.1404  0.2661  0.5159
   8.430   1.4502   0.03036   0.02487  -0.1426  0.2855  0.5169
   8.440   1.4491   0.03051   0.02500  -0.1424  0.2840  0.5170
   8.450   1.4374   0.03133   0.02575  -0.1412  0.2742  0.5165
   8.460   1.4525   0.03044   0.02495  -0.1425  0.2857  0.5172
   8.470   1.4549   0.03037   0.02489  -0.1427  0.2874  0.5175
   8.480   1.4563   0.03035   0.02487  -0.1427  0.2882  0.5177
   8.490   1.4575   0.03034   0.02487  -0.1427  0.2888  0.5179
   8.500   1.4622   0.03013   0.02469  -0.1431  0.2918  0.5181
   8.510   1.4422   0.03147   0.02591  -0.1411  0.2748  0.5177
   8.520   1.4460   0.03130   0.02576  -0.1414  0.2773  0.5177
   8.530   1.4538   0.03087   0.02537  -0.1420  0.2831  0.5181
   8.540   1.4623   0.03041   0.02496  -0.1428  0.2901  0.5186
   8.550   1.4454   0.03157   0.02601  -0.1411  0.2751  0.5181
   8.560   1.4605   0.03066   0.02519  -0.1424  0.2870  0.5188
   8.570   1.4540   0.03116   0.02565  -0.1417  0.2817  0.5185
   8.580   1.4616   0.03074   0.02527  -0.1424  0.2869  0.5191
   8.590   1.4535   0.03135   0.02583  -0.1415  0.2803  0.5189
   8.600   1.4647   0.03070   0.02524  -0.1425  0.2886  0.5193
   8.610   1.4390   0.03245   0.02683  -0.1400  0.2660  0.5184
   8.620   1.4485   0.03190   0.02634  -0.1408  0.2740  0.5189
   8.630   1.4511   0.03180   0.02626  -0.1410  0.2755  0.5191
   8.640   1.4558   0.03157   0.02606  -0.1413  0.2792  0.5194
   8.650   1.4636   0.03114   0.02567  -0.1420  0.2846  0.5198
   8.660   1.4516   0.03200   0.02645  -0.1408  0.2744  0.5194
   8.680   1.4315   0.03348   0.02778  -0.1388  0.2549  0.5189
   8.690   1.4517   0.03222   0.02666  -0.1405  0.2730  0.5197
   8.700   1.4421   0.03293   0.02730  -0.1396  0.2638  0.5195
   8.710   1.4554   0.03213   0.02659  -0.1407  0.2746  0.5202
   8.720   1.4477   0.03271   0.02712  -0.1399  0.2669  0.5200
   8.730   1.4558   0.03226   0.02671  -0.1406  0.2740  0.5205
   8.740   1.4435   0.03314   0.02751  -0.1394  0.2620  0.5203
   8.750   1.4458   0.03307   0.02745  -0.1395  0.2639  0.5203
   8.760   1.4517   0.03276   0.02717  -0.1399  0.2680  0.5208
   8.770   1.4628   0.03210   0.02659  -0.1409  0.2774  0.5212
   8.780   1.4586   0.03245   0.02691  -0.1404  0.2735  0.5211
   8.800   1.4544   0.03288   0.02730  -0.1399  0.2679  0.5212
   8.810   1.4444   0.03362   0.02797  -0.1389  0.2579  0.5209
   8.820   1.4643   0.03238   0.02686  -0.1406  0.2757  0.5218
   8.830   1.4586   0.03283   0.02727  -0.1400  0.2702  0.5217
   8.840   1.4497   0.03350   0.02787  -0.1391  0.2611  0.5217
   8.850   1.4303   0.03491   0.02915  -0.1373  0.2430  0.5207
   8.860   1.4448   0.03399   0.02832  -0.1385  0.2559  0.5216
   8.870   1.4376   0.03456   0.02884  -0.1378  0.2487  0.5213
   8.880   1.4577   0.03328   0.02769  -0.1395  0.2660  0.5224
   8.890   1.4416   0.03445   0.02875  -0.1380  0.2507  0.5217
   8.900   1.4690   0.03268   0.02716  -0.1404  0.2751  0.5228
   8.910   1.4540   0.03376   0.02813  -0.1389  0.2605  0.5222
   8.920   1.4306   0.03545   0.02967  -0.1368  0.2395  0.5217
   8.930   1.4404   0.03485   0.02913  -0.1376  0.2479  0.5220
   8.940   1.4591   0.03365   0.02804  -0.1392  0.2639  0.5229
