  
       XFOIL         Version 6.94
  
 Calculated polar for: 1080                                            
  
 1 1 Reynolds number fixed          Mach number fixed         
  
 xtrf =   1.000 (top)        1.000 (bottom)  
 Mach =   0.000     Re =     2.000 e 6     Ncrit =   9.000
  
  alpha     CL        CD       CDp       CM    Top_Xtr Bot_Xtr
 ------- -------- --------- --------- -------- ------- -------
   6.000   1.2909   0.01294   0.00710  -0.1313  0.2851  0.5090
   6.010   1.2972   0.01277   0.00696  -0.1321  0.2892  0.5094
   6.020   1.3019   0.01266   0.00687  -0.1327  0.2930  0.5096
   6.030   1.2915   0.01303   0.00718  -0.1310  0.2835  0.5095
   6.040   1.3072   0.01257   0.00679  -0.1332  0.2960  0.5099
   6.050   1.3031   0.01273   0.00693  -0.1324  0.2918  0.5099
   6.060   1.3143   0.01242   0.00668  -0.1340  0.3007  0.5103
   6.070   1.2896   0.01325   0.00738  -0.1301  0.2795  0.5099
   6.080   1.2973   0.01303   0.00719  -0.1310  0.2856  0.5100
   6.090   1.2689   0.01411   0.00814  -0.1269  0.2625  0.5093
   6.100   1.2990   0.01305   0.00722  -0.1310  0.2858  0.5105
   6.110   1.3131   0.01263   0.00687  -0.1330  0.2964  0.5110
   6.120   1.2930   0.01333   0.00747  -0.1298  0.2794  0.5104
   6.130   1.2918   0.01341   0.00754  -0.1295  0.2783  0.5105
   6.140   1.2993   0.01319   0.00735  -0.1304  0.2831  0.5107
   6.150   1.3131   0.01277   0.00700  -0.1323  0.2943  0.5113
   6.160   1.2965   0.01337   0.00751  -0.1297  0.2799  0.5110
   6.170   1.2814   0.01397   0.00805  -0.1275  0.2682  0.5106
   6.180   1.3030   0.01322   0.00739  -0.1303  0.2840  0.5114
   6.190   1.2987   0.01341   0.00756  -0.1296  0.2799  0.5114
   6.200   1.2897   0.01379   0.00789  -0.1282  0.2724  0.5112
   6.210   1.2981   0.01352   0.00765  -0.1292  0.2786  0.5115
   6.220   1.2846   0.01408   0.00816  -0.1272  0.2680  0.5113
   6.260   1.2998   0.01367   0.00780  -0.1287  0.2776  0.5120
   6.270   1.2958   0.01386   0.00798  -0.1280  0.2734  0.5121
   6.280   1.3038   0.01360   0.00775  -0.1290  0.2791  0.5125
   6.290   1.2926   0.01408   0.00818  -0.1273  0.2703  0.5121
   6.300   1.2904   0.01422   0.00831  -0.1269  0.2684  0.5124
   6.310   1.2966   0.01401   0.00813  -0.1276  0.2719  0.5125
   6.320   1.2870   0.01447   0.00854  -0.1262  0.2644  0.5125
   6.330   1.2795   0.01488   0.00892  -0.1252  0.2586  0.5123
   6.340   1.2787   0.01498   0.00901  -0.1250  0.2574  0.5125
   6.350   1.2900   0.01449   0.00857  -0.1262  0.2652  0.5130
   6.360   1.2848   0.01479   0.00885  -0.1255  0.2614  0.5128
   6.370   1.2802   0.01508   0.00912  -0.1248  0.2570  0.5131
   6.380   1.2899   0.01466   0.00873  -0.1258  0.2637  0.5135
   6.390   1.2853   0.01494   0.00899  -0.1252  0.2604  0.5133
   6.400   1.2854   0.01499   0.00905  -0.1251  0.2598  0.5133
   6.410   1.2737   0.01572   0.00972  -0.1238  0.2499  0.5132
   6.420   1.2672   0.01622   0.01019  -0.1231  0.2438  0.5131
   6.430   1.3024   0.01435   0.00848  -0.1267  0.2706  0.5145
   6.440   1.2731   0.01599   0.00998  -0.1235  0.2474  0.5136
   6.450   1.2929   0.01490   0.00899  -0.1254  0.2627  0.5144
   6.460   1.2846   0.01541   0.00946  -0.1244  0.2558  0.5141
   6.470   1.2787   0.01585   0.00987  -0.1237  0.2505  0.5139
   6.480   1.2998   0.01473   0.00884  -0.1258  0.2663  0.5150
   6.490   1.2755   0.01621   0.01021  -0.1233  0.2465  0.5141
   6.500   1.2827   0.01582   0.00985  -0.1239  0.2526  0.5147
   6.510   1.2780   0.01620   0.01021  -0.1233  0.2473  0.5146
   6.520   1.3130   0.01434   0.00850  -0.1269  0.2737  0.5161
   6.530   1.2744   0.01659   0.01057  -0.1229  0.2428  0.5147
   6.540   1.2813   0.01621   0.01023  -0.1234  0.2483  0.5152
   6.550   1.2844   0.01609   0.01012  -0.1236  0.2504  0.5153
   6.560   1.2927   0.01563   0.00970  -0.1243  0.2567  0.5158
   6.570   1.2865   0.01610   0.01014  -0.1236  0.2512  0.5158
   6.580   1.2885   0.01605   0.01009  -0.1237  0.2526  0.5159
   6.590   1.2960   0.01564   0.00972  -0.1243  0.2578  0.5163
   6.600   1.2917   0.01599   0.01005  -0.1238  0.2539  0.5164
   6.610   1.2977   0.01568   0.00977  -0.1243  0.2581  0.5166
   6.620   1.2742   0.01727   0.01123  -0.1220  0.2369  0.5157
   6.630   1.2781   0.01710   0.01108  -0.1223  0.2394  0.5162
   6.640   1.2814   0.01697   0.01096  -0.1225  0.2417  0.5161
   6.650   1.2921   0.01635   0.01040  -0.1234  0.2509  0.5170
   6.660   1.2918   0.01645   0.01049  -0.1233  0.2498  0.5169
   6.670   1.2810   0.01721   0.01119  -0.1222  0.2394  0.5169
   6.680   1.2875   0.01688   0.01089  -0.1228  0.2452  0.5172
   6.690   1.2865   0.01701   0.01102  -0.1226  0.2432  0.5170
   6.700   1.2776   0.01763   0.01159  -0.1216  0.2344  0.5168
   6.710   1.2793   0.01760   0.01156  -0.1217  0.2354  0.5173
   6.720   1.2713   0.01815   0.01206  -0.1208  0.2276  0.5173
   6.730   1.2934   0.01687   0.01090  -0.1229  0.2467  0.5181
   6.740   1.2758   0.01802   0.01195  -0.1211  0.2306  0.5174
   6.750   1.2813   0.01777   0.01173  -0.1215  0.2345  0.5177
   6.760   1.2934   0.01710   0.01112  -0.1226  0.2452  0.5184
   6.770   1.2853   0.01766   0.01164  -0.1217  0.2372  0.5181
   6.780   1.2829   0.01788   0.01184  -0.1214  0.2340  0.5181
   6.790   1.2755   0.01839   0.01230  -0.1206  0.2269  0.5179
   6.800   1.2725   0.01863   0.01253  -0.1202  0.2238  0.5180
   6.810   1.2963   0.01728   0.01131  -0.1224  0.2444  0.5193
   6.820   1.2746   0.01865   0.01255  -0.1202  0.2243  0.5185
   6.830   1.2745   0.01872   0.01262  -0.1201  0.2238  0.5184
   6.840   1.2636   0.01941   0.01324  -0.1189  0.2135  0.5182
   6.850   1.2801   0.01853   0.01245  -0.1204  0.2274  0.5188
   6.860   1.2834   0.01840   0.01234  -0.1207  0.2300  0.5193
   6.870   1.2734   0.01905   0.01293  -0.1195  0.2203  0.5189
   6.880   1.2936   0.01794   0.01193  -0.1215  0.2377  0.5198
   6.890   1.2712   0.01930   0.01317  -0.1191  0.2171  0.5194
   6.900   1.2694   0.01947   0.01332  -0.1189  0.2154  0.5191
   6.910   1.2747   0.01924   0.01311  -0.1193  0.2190  0.5196
   6.920   1.2771   0.01917   0.01306  -0.1194  0.2205  0.5198
   6.930   1.2864   0.01870   0.01264  -0.1203  0.2282  0.5203
   6.940   1.2839   0.01891   0.01283  -0.1199  0.2252  0.5201
   6.950   1.2570   0.02050   0.01426  -0.1171  0.2015  0.5195
   6.960   1.2730   0.01967   0.01352  -0.1186  0.2150  0.5201
   6.970   1.2611   0.02040   0.01419  -0.1173  0.2035  0.5200
   6.980   1.2878   0.01896   0.01289  -0.1199  0.2262  0.5209
   6.990   1.2571   0.02075   0.01451  -0.1167  0.1990  0.5197
   7.000   1.2721   0.01998   0.01382  -0.1181  0.2115  0.5207
   7.010   1.2671   0.02033   0.01413  -0.1175  0.2067  0.5207
   7.020   1.2819   0.01956   0.01344  -0.1189  0.2188  0.5213
   7.030   1.2699   0.02030   0.01411  -0.1176  0.2082  0.5209
   7.040   1.2712   0.02029   0.01411  -0.1176  0.2087  0.5211
   7.050   1.2866   0.01949   0.01340  -0.1191  0.2214  0.5217
   7.060   1.2772   0.02009   0.01393  -0.1180  0.2125  0.5216
   7.070   1.2709   0.02050   0.01431  -0.1173  0.2065  0.5214
   7.080   1.2583   0.02127   0.01501  -0.1159  0.1952  0.5214
   7.090   1.2811   0.02006   0.01392  -0.1182  0.2144  0.5219
   7.100   1.2745   0.02049   0.01432  -0.1174  0.2082  0.5219
   7.110   1.2843   0.02001   0.01389  -0.1183  0.2160  0.5223
   7.120   1.2637   0.02123   0.01498  -0.1161  0.1974  0.5217
   7.130   1.2696   0.02097   0.01475  -0.1166  0.2022  0.5222
   7.140   1.2632   0.02139   0.01514  -0.1158  0.1960  0.5220
   7.150   1.2600   0.02163   0.01536  -0.1154  0.1924  0.5219
   7.160   1.2557   0.02193   0.01563  -0.1148  0.1882  0.5217
   7.170   1.2791   0.02069   0.01452  -0.1171  0.2082  0.5229
   7.180   1.2668   0.02145   0.01521  -0.1158  0.1966  0.5228
   7.190   1.2669   0.02151   0.01526  -0.1157  0.1963  0.5228
   7.200   1.2725   0.02126   0.01504  -0.1162  0.2008  0.5229
   7.210   1.2663   0.02167   0.01541  -0.1154  0.1949  0.5229
   7.220   1.2591   0.02213   0.01583  -0.1146  0.1876  0.5228
   7.230   1.2650   0.02186   0.01560  -0.1151  0.1922  0.5231
   7.240   1.2711   0.02159   0.01536  -0.1156  0.1969  0.5234
   7.250   1.2516   0.02275   0.01640  -0.1135  0.1791  0.5229
   7.260   1.2400   0.02346   0.01705  -0.1123  0.1678  0.5227
   7.270   1.2549   0.02270   0.01636  -0.1137  0.1809  0.5231
   7.280   1.2545   0.02278   0.01644  -0.1135  0.1800  0.5232
   7.290   1.2291   0.02428   0.01779  -0.1109  0.1554  0.5227
   7.320   1.2365   0.02405   0.01759  -0.1113  0.1606  0.5230
   7.330   1.2454   0.02362   0.01721  -0.1121  0.1687  0.5234
   7.340   1.2701   0.02229   0.01602  -0.1145  0.1902  0.5245
   7.350   1.2676   0.02250   0.01621  -0.1142  0.1879  0.5245
   7.360   1.2504   0.02353   0.01714  -0.1123  0.1715  0.5242
   7.370   1.2492   0.02366   0.01727  -0.1121  0.1700  0.5242
   7.380   1.2415   0.02416   0.01772  -0.1112  0.1618  0.5239
   7.390   1.2606   0.02315   0.01682  -0.1131  0.1791  0.5249
   7.400   1.2706   0.02266   0.01638  -0.1140  0.1877  0.5254
   7.430   1.2466   0.02420   0.01777  -0.1113  0.1638  0.5250
   7.440   1.2178   0.02592   0.01932  -0.1084  0.1351  0.5238
   7.450   1.2446   0.02445   0.01800  -0.1109  0.1605  0.5251
   7.460   1.2264   0.02556   0.01901  -0.1090  0.1426  0.5243
   7.470   1.2283   0.02552   0.01897  -0.1091  0.1438  0.5244
   7.490   1.2403   0.02496   0.01848  -0.1101  0.1542  0.5254
   7.500   1.2607   0.02386   0.01749  -0.1120  0.1724  0.5261
   7.510   1.2534   0.02434   0.01793  -0.1112  0.1651  0.5262
   7.520   1.2751   0.02318   0.01690  -0.1133  0.1846  0.5271
   7.530   1.2553   0.02436   0.01796  -0.1112  0.1657  0.5263
