  
       XFOIL         Version 6.94
  
 Calculated polar for: 1080                                            
  
 1 1 Reynolds number fixed          Mach number fixed         
  
 xtrf =   1.000 (top)        1.000 (bottom)  
 Mach =   0.000     Re =     2.000 e 6     Ncrit =   9.000
  
  alpha     CL        CD       CDp       CM    Top_Xtr Bot_Xtr
 ------- -------- --------- --------- -------- ------- -------
   6.000   1.2627   0.00962   0.00555  -0.1190  0.5731  0.7801
   6.010   1.2636   0.00963   0.00556  -0.1190  0.5731  0.7801
   6.020   1.2645   0.00963   0.00556  -0.1190  0.5730  0.7801
   6.030   1.2652   0.00964   0.00557  -0.1189  0.5730  0.7801
   6.040   1.2663   0.00964   0.00557  -0.1190  0.5730  0.7801
   6.050   1.2670   0.00965   0.00558  -0.1189  0.5729  0.7802
   6.060   1.2676   0.00966   0.00559  -0.1189  0.5729  0.7802
   6.070   1.2688   0.00966   0.00559  -0.1189  0.5729  0.7802
   6.080   1.2694   0.00967   0.00560  -0.1189  0.5728  0.7802
   6.090   1.2704   0.00967   0.00561  -0.1189  0.5728  0.7802
   6.100   1.2711   0.00968   0.00561  -0.1188  0.5728  0.7803
   6.110   1.2718   0.00968   0.00562  -0.1188  0.5727  0.7803
   6.120   1.2727   0.00969   0.00563  -0.1188  0.5727  0.7803
   6.130   1.2733   0.00970   0.00563  -0.1187  0.5726  0.7803
   6.140   1.2742   0.00970   0.00564  -0.1187  0.5726  0.7803
   6.150   1.2749   0.00971   0.00565  -0.1187  0.5725  0.7804
   6.160   1.2755   0.00972   0.00565  -0.1186  0.5725  0.7804
   6.170   1.2770   0.00972   0.00566  -0.1187  0.5725  0.7804
   6.180   1.2777   0.00972   0.00566  -0.1187  0.5725  0.7804
   6.190   1.2780   0.00973   0.00567  -0.1185  0.5723  0.7804
   6.200   1.2792   0.00973   0.00568  -0.1186  0.5724  0.7805
   6.210   1.2795   0.00974   0.00569  -0.1185  0.5723  0.7805
   6.220   1.2808   0.00975   0.00569  -0.1185  0.5723  0.7805
   6.230   1.2814   0.00975   0.00570  -0.1185  0.5722  0.7805
   6.240   1.2820   0.00976   0.00570  -0.1184  0.5721  0.7805
   6.250   1.2830   0.00977   0.00571  -0.1184  0.5721  0.7806
   6.260   1.2838   0.00977   0.00572  -0.1184  0.5721  0.7806
   6.270   1.2846   0.00978   0.00572  -0.1184  0.5720  0.7806
   6.280   1.2856   0.00978   0.00573  -0.1184  0.5720  0.7806
   6.290   1.2864   0.00979   0.00573  -0.1184  0.5720  0.7806
   6.300   1.2867   0.00980   0.00574  -0.1182  0.5718  0.7807
   6.310   1.2878   0.00980   0.00575  -0.1183  0.5718  0.7807
   6.320   1.2881   0.00981   0.00576  -0.1182  0.5717  0.7807
   6.330   1.2892   0.00981   0.00576  -0.1182  0.5717  0.7807
   6.340   1.2898   0.00982   0.00577  -0.1181  0.5716  0.7807
   6.350   1.2909   0.00982   0.00577  -0.1182  0.5716  0.7807
   6.360   1.2911   0.00983   0.00578  -0.1180  0.5715  0.7808
   6.370   1.2917   0.00984   0.00579  -0.1179  0.5714  0.7808
   6.380   1.2928   0.00984   0.00579  -0.1180  0.5714  0.7808
   6.390   1.2939   0.00985   0.00580  -0.1180  0.5714  0.7808
   6.400   1.2937   0.00986   0.00581  -0.1178  0.5712  0.7809
   6.410   1.2949   0.00986   0.00581  -0.1178  0.5712  0.7809
   6.420   1.2960   0.00987   0.00582  -0.1179  0.5712  0.7809
   6.430   1.2964   0.00987   0.00583  -0.1178  0.5711  0.7809
   6.440   1.2971   0.00988   0.00583  -0.1177  0.5710  0.7809
   6.450   1.2979   0.00989   0.00584  -0.1177  0.5710  0.7809
   6.460   1.2987   0.00989   0.00585  -0.1177  0.5709  0.7810
   6.470   1.2994   0.00990   0.00585  -0.1176  0.5709  0.7810
   6.480   1.3005   0.00990   0.00586  -0.1177  0.5708  0.7810
   6.490   1.3002   0.00992   0.00587  -0.1174  0.5706  0.7810
   6.500   1.3016   0.00992   0.00587  -0.1175  0.5707  0.7811
   6.510   1.3019   0.00993   0.00588  -0.1174  0.5705  0.7811
   6.520   1.3028   0.00993   0.00589  -0.1174  0.5705  0.7811
   6.530   1.3035   0.00994   0.00590  -0.1173  0.5704  0.7811
   6.540   1.3038   0.00995   0.00591  -0.1172  0.5703  0.7811
   6.550   1.3045   0.00995   0.00591  -0.1172  0.5702  0.7812
   6.560   1.3054   0.00996   0.00592  -0.1172  0.5702  0.7812
   6.570   1.3055   0.00997   0.00593  -0.1170  0.5700  0.7812
   6.580   1.3067   0.00997   0.00593  -0.1171  0.5700  0.7812
   6.590   1.3073   0.00998   0.00594  -0.1170  0.5699  0.7812
   6.600   1.3083   0.00999   0.00595  -0.1170  0.5699  0.7812
   6.610   1.3087   0.00999   0.00596  -0.1169  0.5698  0.7813
   6.620   1.3088   0.01001   0.00597  -0.1168  0.5696  0.7813
   6.630   1.3101   0.01001   0.00597  -0.1168  0.5696  0.7813
   6.640   1.3102   0.01002   0.00598  -0.1167  0.5695  0.7813
   6.650   1.3112   0.01002   0.00599  -0.1167  0.5694  0.7814
   6.660   1.3122   0.01003   0.00599  -0.1167  0.5694  0.7814
   6.670   1.3129   0.01004   0.00600  -0.1167  0.5694  0.7814
   6.680   1.3133   0.01004   0.00601  -0.1166  0.5692  0.7814
   6.690   1.3141   0.01005   0.00601  -0.1165  0.5692  0.7814
   6.700   1.3142   0.01006   0.00602  -0.1164  0.5690  0.7815
   6.710   1.3156   0.01006   0.00603  -0.1165  0.5691  0.7815
   6.720   1.3154   0.01008   0.00604  -0.1163  0.5688  0.7815
   6.730   1.3167   0.01008   0.00604  -0.1163  0.5689  0.7815
   6.740   1.3177   0.01009   0.00605  -0.1163  0.5689  0.7815
   6.750   1.3182   0.01009   0.00606  -0.1163  0.5687  0.7815
   6.760   1.3189   0.01010   0.00606  -0.1162  0.5687  0.7816
   6.770   1.3197   0.01011   0.00607  -0.1162  0.5686  0.7816
   6.780   1.3200   0.01012   0.00608  -0.1161  0.5685  0.7816
   6.790   1.3205   0.01013   0.00609  -0.1160  0.5684  0.7816
   6.800   1.3212   0.01014   0.00610  -0.1160  0.5683  0.7816
   6.810   1.3217   0.01015   0.00611  -0.1159  0.5682  0.7817
   6.820   1.3224   0.01015   0.00612  -0.1158  0.5681  0.7817
   6.830   1.3230   0.01016   0.00613  -0.1158  0.5680  0.7817
   6.840   1.3236   0.01017   0.00613  -0.1157  0.5680  0.7817
   6.850   1.3244   0.01018   0.00614  -0.1157  0.5679  0.7818
   6.860   1.3248   0.01019   0.00615  -0.1156  0.5677  0.7818
   6.870   1.3259   0.01019   0.00615  -0.1156  0.5677  0.7818
   6.880   1.3266   0.01020   0.00616  -0.1156  0.5676  0.7818
   6.890   1.3277   0.01021   0.00617  -0.1156  0.5676  0.7818
   6.900   1.3283   0.01021   0.00617  -0.1156  0.5675  0.7818
   6.910   1.3291   0.01022   0.00618  -0.1155  0.5674  0.7819
   6.920   1.3299   0.01023   0.00619  -0.1155  0.5673  0.7819
   6.930   1.3304   0.01024   0.00619  -0.1154  0.5671  0.7819
   6.940   1.3317   0.01024   0.00620  -0.1155  0.5672  0.7819
   6.950   1.3323   0.01025   0.00620  -0.1155  0.5670  0.7819
   6.960   1.3332   0.01026   0.00621  -0.1155  0.5669  0.7819
   6.970   1.3342   0.01026   0.00621  -0.1155  0.5668  0.7819
   6.980   1.3352   0.01027   0.00622  -0.1155  0.5667  0.7820
   6.990   1.3362   0.01027   0.00622  -0.1155  0.5667  0.7820
   7.000   1.3372   0.01028   0.00623  -0.1155  0.5665  0.7820
   7.010   1.3382   0.01029   0.00623  -0.1155  0.5664  0.7820
   7.020   1.3393   0.01029   0.00623  -0.1156  0.5663  0.7820
   7.030   1.3404   0.01029   0.00624  -0.1156  0.5663  0.7820
   7.040   1.3415   0.01030   0.00624  -0.1156  0.5662  0.7821
   7.050   1.3426   0.01030   0.00624  -0.1157  0.5660  0.7821
   7.060   1.3439   0.01031   0.00624  -0.1157  0.5659  0.7821
   7.070   1.3452   0.01031   0.00624  -0.1158  0.5658  0.7821
   7.080   1.3463   0.01031   0.00625  -0.1158  0.5658  0.7821
   7.090   1.3476   0.01031   0.00625  -0.1159  0.5657  0.7821
   7.100   1.3490   0.01032   0.00625  -0.1160  0.5656  0.7821
   7.110   1.3507   0.01031   0.00624  -0.1162  0.5654  0.7821
   7.120   1.3518   0.01032   0.00625  -0.1162  0.5654  0.7822
   7.130   1.3528   0.01032   0.00625  -0.1162  0.5652  0.7822
   7.140   1.3537   0.01033   0.00626  -0.1162  0.5652  0.7822
   7.150   1.3541   0.01034   0.00627  -0.1161  0.5652  0.7822
   7.160   1.3541   0.01036   0.00629  -0.1159  0.5651  0.7822
   7.170   1.3549   0.01037   0.00630  -0.1159  0.5651  0.7822
   7.180   1.3550   0.01038   0.00632  -0.1158  0.5650  0.7823
   7.190   1.3544   0.01041   0.00635  -0.1155  0.5649  0.7823
   7.200   1.3551   0.01041   0.00636  -0.1154  0.5649  0.7823
   7.210   1.3559   0.01042   0.00637  -0.1154  0.5649  0.7823
   7.220   1.3571   0.01043   0.00637  -0.1155  0.5649  0.7823
   7.230   1.3571   0.01044   0.00639  -0.1153  0.5648  0.7824
   7.240   1.3572   0.01046   0.00641  -0.1151  0.5647  0.7824
   7.250   1.3565   0.01048   0.00644  -0.1148  0.5645  0.7824
   7.260   1.3586   0.01048   0.00643  -0.1151  0.5646  0.7824
   7.270   1.3588   0.01049   0.00645  -0.1149  0.5646  0.7824
   7.280   1.3601   0.01049   0.00645  -0.1150  0.5646  0.7824
   7.290   1.3590   0.01052   0.00649  -0.1146  0.5644  0.7825
   7.300   1.3606   0.01052   0.00648  -0.1148  0.5644  0.7825
   7.310   1.3612   0.01053   0.00649  -0.1147  0.5644  0.7825
   7.320   1.3614   0.01055   0.00651  -0.1146  0.5643  0.7825
   7.330   1.3614   0.01056   0.00653  -0.1144  0.5642  0.7825
   7.340   1.3634   0.01056   0.00652  -0.1146  0.5643  0.7825
   7.350   1.3635   0.01057   0.00654  -0.1144  0.5641  0.7826
   7.360   1.3641   0.01058   0.00656  -0.1144  0.5641  0.7826
   7.370   1.3644   0.01060   0.00657  -0.1143  0.5640  0.7826
   7.380   1.3652   0.01061   0.00658  -0.1143  0.5640  0.7826
   7.390   1.3656   0.01062   0.00660  -0.1142  0.5639  0.7826
   7.400   1.3667   0.01062   0.00660  -0.1142  0.5639  0.7826
   7.410   1.3670   0.01064   0.00662  -0.1141  0.5638  0.7827
   7.420   1.3677   0.01065   0.00663  -0.1140  0.5638  0.7827
   7.430   1.3679   0.01067   0.00665  -0.1139  0.5637  0.7827
   7.440   1.3694   0.01066   0.00664  -0.1140  0.5638  0.7827
   7.450   1.3692   0.01069   0.00667  -0.1138  0.5636  0.7827
   7.460   1.3705   0.01069   0.00667  -0.1139  0.5636  0.7827
   7.470   1.3701   0.01071   0.00670  -0.1136  0.5634  0.7827
   7.480   1.3707   0.01072   0.00671  -0.1136  0.5634  0.7828
   7.490   1.3724   0.01072   0.00671  -0.1137  0.5635  0.7828
   7.500   1.3719   0.01074   0.00673  -0.1135  0.5632  0.7828
   7.510   1.3732   0.01075   0.00674  -0.1136  0.5633  0.7828
   7.520   1.3730   0.01077   0.00676  -0.1133  0.5631  0.7828
   7.530   1.3746   0.01077   0.00676  -0.1135  0.5632  0.7828
   7.540   1.3753   0.01078   0.00677  -0.1134  0.5631  0.7828
   7.550   1.3762   0.01078   0.00678  -0.1134  0.5631  0.7829
