  
       XFOIL         Version 6.94
  
 Calculated polar for: 1080                                            
  
 1 1 Reynolds number fixed          Mach number fixed         
  
 xtrf =   1.000 (top)        1.000 (bottom)  
 Mach =   0.000     Re =     2.000 e 6     Ncrit =   9.000
  
  alpha     CL        CD       CDp       CM    Top_Xtr Bot_Xtr
 ------- -------- --------- --------- -------- ------- -------
   6.000   1.1811   0.00698   0.00293  -0.0979  0.5155  0.7839
   6.010   1.1830   0.00698   0.00294  -0.0980  0.5183  0.7839
   6.020   1.1833   0.00699   0.00293  -0.0979  0.5159  0.7839
   6.030   1.1844   0.00699   0.00294  -0.0979  0.5159  0.7840
   6.040   1.1855   0.00699   0.00294  -0.0979  0.5156  0.7840
   6.050   1.1866   0.00699   0.00294  -0.0979  0.5149  0.7840
   6.060   1.1876   0.00700   0.00295  -0.0979  0.5163  0.7841
   6.070   1.1893   0.00699   0.00295  -0.0981  0.5179  0.7841
   6.080   1.1898   0.00700   0.00295  -0.0979  0.5151  0.7842
   6.090   1.1909   0.00700   0.00295  -0.0980  0.5149  0.7842
   6.100   1.1920   0.00700   0.00296  -0.0980  0.5164  0.7842
   6.110   1.1928   0.00700   0.00295  -0.0979  0.5128  0.7843
   6.120   1.1942   0.00701   0.00296  -0.0980  0.5164  0.7843
   6.130   1.1953   0.00700   0.00296  -0.0980  0.5147  0.7843
   6.140   1.1961   0.00700   0.00296  -0.0979  0.5128  0.7844
   6.150   1.1973   0.00701   0.00296  -0.0980  0.5137  0.7844
   6.160   1.1984   0.00701   0.00297  -0.0980  0.5133  0.7844
   6.170   1.1985   0.00702   0.00296  -0.0978  0.5103  0.7845
   6.180   1.2005   0.00701   0.00297  -0.0980  0.5131  0.7845
   6.190   1.2018   0.00701   0.00298  -0.0981  0.5147  0.7845
   6.200   1.2027   0.00701   0.00298  -0.0980  0.5131  0.7846
   6.210   1.2027   0.00703   0.00298  -0.0978  0.5099  0.7846
   6.220   1.2050   0.00702   0.00299  -0.0981  0.5139  0.7846
   6.230   1.2049   0.00703   0.00298  -0.0978  0.5100  0.7847
   6.240   1.2063   0.00703   0.00299  -0.0979  0.5109  0.7847
   6.250   1.2074   0.00703   0.00299  -0.0979  0.5109  0.7847
   6.260   1.2091   0.00702   0.00300  -0.0981  0.5127  0.7848
   6.270   1.2094   0.00703   0.00300  -0.0979  0.5105  0.7848
   6.280   1.2099   0.00705   0.00300  -0.0978  0.5093  0.7848
   6.290   1.2098   0.00707   0.00300  -0.0976  0.5076  0.7849
   6.300   1.2121   0.00705   0.00300  -0.0978  0.5094  0.7849
   6.310   1.2115   0.00708   0.00301  -0.0975  0.5040  0.7850
   6.320   1.2151   0.00704   0.00301  -0.0980  0.5112  0.7850
   6.330   1.2160   0.00704   0.00301  -0.0980  0.5106  0.7850
   6.340   1.2128   0.00712   0.00303  -0.0971  0.4994  0.7851
   6.350   1.2163   0.00708   0.00302  -0.0976  0.5077  0.7851
   6.360   1.2172   0.00708   0.00302  -0.0976  0.5059  0.7851
   6.370   1.2184   0.00708   0.00303  -0.0976  0.5067  0.7851
   6.380   1.2191   0.00709   0.00303  -0.0976  0.5042  0.7852
   6.390   1.2219   0.00706   0.00303  -0.0979  0.5095  0.7852
   6.400   1.2216   0.00708   0.00304  -0.0977  0.5071  0.7852
   6.410   1.2221   0.00710   0.00304  -0.0975  0.5033  0.7853
   6.420   1.2240   0.00709   0.00304  -0.0977  0.5079  0.7853
   6.430   1.2242   0.00710   0.00305  -0.0976  0.5034  0.7853
   6.440   1.2264   0.00708   0.00305  -0.0978  0.5083  0.7854
   6.450   1.2268   0.00710   0.00305  -0.0977  0.5053  0.7854
   6.460   1.2277   0.00710   0.00306  -0.0976  0.5044  0.7854
   6.470   1.2287   0.00710   0.00306  -0.0976  0.5042  0.7855
   6.480   1.2292   0.00712   0.00306  -0.0975  0.5021  0.7855
   6.490   1.2204   0.00730   0.00314  -0.0956  0.4814  0.7857
   6.500   1.2315   0.00712   0.00307  -0.0976  0.5026  0.7856
   6.510   1.2323   0.00712   0.00307  -0.0975  0.5020  0.7856
   6.520   1.2309   0.00717   0.00309  -0.0970  0.4966  0.7857
   6.530   1.2310   0.00719   0.00310  -0.0969  0.4938  0.7857
   6.540   1.2291   0.00725   0.00312  -0.0963  0.4886  0.7858
   6.550   1.2166   0.00749   0.00325  -0.0936  0.4661  0.7861
   6.560   1.2314   0.00725   0.00313  -0.0963  0.4891  0.7859
   6.570   1.2294   0.00730   0.00315  -0.0957  0.4826  0.7860
   6.580   1.2366   0.00719   0.00311  -0.0969  0.4946  0.7859
   6.590   1.2317   0.00730   0.00316  -0.0958  0.4830  0.7860
   6.600   1.2404   0.00717   0.00311  -0.0973  0.4992  0.7859
   6.610   1.2346   0.00729   0.00316  -0.0959  0.4845  0.7861
   6.620   1.2393   0.00723   0.00313  -0.0966  0.4913  0.7860
   6.630   1.2304   0.00740   0.00322  -0.0947  0.4745  0.7862
   6.640   1.2198   0.00762   0.00334  -0.0924  0.4584  0.7865
   6.650   1.2311   0.00743   0.00324  -0.0944  0.4726  0.7863
   6.660   1.2334   0.00741   0.00323  -0.0946  0.4744  0.7863
   6.670   1.2147   0.00779   0.00346  -0.0907  0.4478  0.7867
   6.680   1.2242   0.00762   0.00335  -0.0924  0.4592  0.7866
   6.690   1.2327   0.00748   0.00327  -0.0939  0.4695  0.7865
   6.700   1.2349   0.00746   0.00326  -0.0941  0.4713  0.7865
   6.710   1.2404   0.00738   0.00322  -0.0950  0.4780  0.7865
   6.720   1.2414   0.00738   0.00323  -0.0950  0.4780  0.7865
   6.730   1.2356   0.00751   0.00329  -0.0936  0.4678  0.7867
   6.740   1.2330   0.00758   0.00334  -0.0929  0.4628  0.7868
   6.750   1.2347   0.00756   0.00333  -0.0930  0.4637  0.7868
   6.760   1.2277   0.00773   0.00343  -0.0915  0.4532  0.7870
   6.770   1.2335   0.00763   0.00337  -0.0924  0.4597  0.7869
   6.780   1.2306   0.00771   0.00343  -0.0916  0.4543  0.7870
   6.790   1.2221   0.00792   0.00357  -0.0898  0.4429  0.7872
   6.800   1.2416   0.00754   0.00333  -0.0934  0.4664  0.7869
   6.810   1.2246   0.00791   0.00357  -0.0899  0.4434  0.7873
   6.820   1.2241   0.00795   0.00359  -0.0896  0.4418  0.7874
   6.830   1.2404   0.00763   0.00338  -0.0925  0.4612  0.7871
   6.840   1.2206   0.00807   0.00368  -0.0885  0.4349  0.7875
   6.850   1.2302   0.00789   0.00356  -0.0901  0.4452  0.7874
   6.860   1.2169   0.00821   0.00378  -0.0874  0.4283  0.7877
   6.870   1.2361   0.00781   0.00351  -0.0909  0.4503  0.7874
   6.880   1.2255   0.00806   0.00368  -0.0886  0.4361  0.7877
   6.890   1.2142   0.00834   0.00388  -0.0863  0.4223  0.7879
   6.900   1.2377   0.00784   0.00354  -0.0906  0.4484  0.7876
   6.910   1.2315   0.00800   0.00365  -0.0892  0.4400  0.7877
   6.920   1.2339   0.00797   0.00363  -0.0895  0.4420  0.7877
   6.930   1.2263   0.00817   0.00377  -0.0878  0.4317  0.7879
   6.940   1.2231   0.00827   0.00384  -0.0870  0.4265  0.7880
   6.950   1.2427   0.00785   0.00356  -0.0906  0.4487  0.7877
   6.960   1.2289   0.00818   0.00379  -0.0877  0.4314  0.7880
   6.970   1.2257   0.00828   0.00386  -0.0869  0.4262  0.7881
   6.980   1.2445   0.00789   0.00359  -0.0903  0.4470  0.7879
   6.990   1.2205   0.00845   0.00398  -0.0855  0.4180  0.7884
   7.000   1.2277   0.00831   0.00389  -0.0867  0.4252  0.7883
   7.010   1.2327   0.00822   0.00383  -0.0874  0.4301  0.7882
   7.020   1.2335   0.00823   0.00383  -0.0874  0.4298  0.7883
   7.030   1.2374   0.00817   0.00379  -0.0879  0.4334  0.7882
   7.040   1.2184   0.00863   0.00412  -0.0841  0.4106  0.7887
   7.050   1.2194   0.00863   0.00412  -0.0841  0.4107  0.7887
   7.060   1.2293   0.00843   0.00398  -0.0858  0.4205  0.7886
   7.070   1.2155   0.00877   0.00423  -0.0830  0.4047  0.7889
   7.080   1.2266   0.00854   0.00407  -0.0849  0.4155  0.7887
   7.090   1.2235   0.00864   0.00414  -0.0841  0.4111  0.7888
   7.100   1.2342   0.00842   0.00398  -0.0859  0.4220  0.7887
   7.110   1.2290   0.00856   0.00409  -0.0848  0.4151  0.7889
   7.120   1.2212   0.00877   0.00424  -0.0831  0.4055  0.7891
   7.130   1.2184   0.00886   0.00431  -0.0824  0.4018  0.7892
   7.140   1.2253   0.00872   0.00421  -0.0835  0.4078  0.7891
   7.150   1.2076   0.00916   0.00453  -0.0800  0.3881  0.7895
   7.160   1.2237   0.00881   0.00428  -0.0828  0.4045  0.7892
   7.170   1.2281   0.00873   0.00423  -0.0834  0.4078  0.7892
   7.180   1.2261   0.00881   0.00428  -0.0829  0.4050  0.7893
   7.190   1.2322   0.00869   0.00420  -0.0838  0.4104  0.7892
   7.200   1.2017   0.00942   0.00474  -0.0780  0.3776  0.7899
   7.210   1.2225   0.00897   0.00441  -0.0816  0.3979  0.7895
   7.220   1.2176   0.00910   0.00451  -0.0805  0.3922  0.7897
   7.230   1.2346   0.00874   0.00424  -0.0835  0.4088  0.7894
   7.240   1.2136   0.00925   0.00462  -0.0794  0.3861  0.7898
   7.250   1.2140   0.00926   0.00464  -0.0793  0.3858  0.7899
   7.260   1.2247   0.00904   0.00448  -0.0811  0.3956  0.7898
   7.270   1.2087   0.00944   0.00477  -0.0779  0.3784  0.7901
   7.280   1.2059   0.00953   0.00485  -0.0772  0.3751  0.7902
   7.290   1.2068   0.00953   0.00485  -0.0772  0.3752  0.7902
   7.300   1.2159   0.00935   0.00471  -0.0787  0.3834  0.7901
   7.310   1.2331   0.00898   0.00444  -0.0817  0.3994  0.7899
   7.320   1.2082   0.00958   0.00489  -0.0769  0.3741  0.7904
   7.330   1.2157   0.00943   0.00478  -0.0781  0.3801  0.7903
   7.340   1.2131   0.00952   0.00485  -0.0774  0.3766  0.7904
   7.350   1.2241   0.00929   0.00468  -0.0793  0.3866  0.7902
   7.360   1.2184   0.00944   0.00480  -0.0780  0.3802  0.7904
   7.370   1.2154   0.00954   0.00488  -0.0773  0.3763  0.7905
   7.380   1.2164   0.00954   0.00488  -0.0773  0.3764  0.7906
   7.390   1.2072   0.00979   0.00507  -0.0755  0.3669  0.7908
   7.400   1.2121   0.00970   0.00500  -0.0762  0.3708  0.7907
   7.410   1.2072   0.00984   0.00511  -0.0751  0.3656  0.7909
   7.420   1.2275   0.00939   0.00477  -0.0786  0.3844  0.7906
   7.430   1.2261   0.00945   0.00482  -0.0781  0.3816  0.7906
   7.440   1.1900   0.01033   0.00551  -0.0715  0.3476  0.7914
   7.450   1.1858   0.01046   0.00562  -0.0706  0.3439  0.7915
   7.460   1.2147   0.00979   0.00509  -0.0755  0.3682  0.7910
   7.470   1.2168   0.00977   0.00507  -0.0757  0.3694  0.7910
   7.480   1.2149   0.00984   0.00513  -0.0752  0.3669  0.7911
   7.490   1.2007   0.01021   0.00542  -0.0725  0.3538  0.7915
   7.500   1.1706   0.01100   0.00607  -0.0672  0.3276  0.7921
   7.510   1.2084   0.01007   0.00532  -0.0735  0.3586  0.7914
   7.520   1.2104   0.01005   0.00531  -0.0737  0.3597  0.7914
   7.530   1.2249   0.00973   0.00506  -0.0761  0.3723  0.7912
   7.540   1.2221   0.00983   0.00514  -0.0754  0.3687  0.7913
   7.550   1.1954   0.01050   0.00568  -0.0706  0.3451  0.7919
   7.560   1.2140   0.01007   0.00534  -0.0736  0.3599  0.7916
   7.570   1.2116   0.01016   0.00541  -0.0730  0.3570  0.7917
   7.580   1.2183   0.01002   0.00530  -0.0740  0.3625  0.7916
   7.590   1.2244   0.00990   0.00521  -0.0749  0.3669  0.7916
   7.600   1.2020   0.01048   0.00567  -0.0708  0.3468  0.7920
   7.610   1.2129   0.01023   0.00548  -0.0725  0.3556  0.7919
   7.620   1.1959   0.01069   0.00585  -0.0694  0.3404  0.7922
   7.630   1.1901   0.01087   0.00600  -0.0683  0.3355  0.7924
   7.640   1.1854   0.01102   0.00613  -0.0674  0.3308  0.7925
   7.650   1.2325   0.00987   0.00520  -0.0753  0.3695  0.7917
   7.660   1.2007   0.01068   0.00585  -0.0696  0.3419  0.7924
   7.670   1.1910   0.01096   0.00609  -0.0678  0.3336  0.7926
   7.680   1.1987   0.01079   0.00595  -0.0689  0.3388  0.7925
   7.690   1.2007   0.01077   0.00593  -0.0691  0.3398  0.7925
   7.700   1.1967   0.01090   0.00605  -0.0682  0.3361  0.7926
   7.710   1.1853   0.01124   0.00633  -0.0662  0.3266  0.7929
   7.720   1.1855   0.01127   0.00636  -0.0660  0.3262  0.7930
   7.730   1.2181   0.01044   0.00567  -0.0713  0.3515  0.7924
   7.740   1.1946   0.01108   0.00621  -0.0672  0.3321  0.7929
   7.750   1.2081   0.01075   0.00593  -0.0693  0.3421  0.7927
   7.760   1.1921   0.01121   0.00632  -0.0665  0.3287  0.7930
   7.770   1.2010   0.01100   0.00614  -0.0678  0.3355  0.7929
   7.780   1.1874   0.01140   0.00649  -0.0654  0.3246  0.7932
   7.790   1.1731   0.01186   0.00688  -0.0630  0.3134  0.7935
   7.800   1.2058   0.01096   0.00612  -0.0681  0.3370  0.7930
   7.810   1.1794   0.01173   0.00678  -0.0636  0.3168  0.7935
   7.820   1.2138   0.01081   0.00600  -0.0691  0.3423  0.7930
   7.830   1.1769   0.01188   0.00692  -0.0629  0.3141  0.7936
   7.840   1.1669   0.01223   0.00722  -0.0612  0.3063  0.7938
   7.850   1.1981   0.01132   0.00644  -0.0660  0.3281  0.7934
   7.860   1.1964   0.01140   0.00651  -0.0656  0.3265  0.7935
   7.870   1.1800   0.01192   0.00696  -0.0628  0.3143  0.7938
   7.880   1.1762   0.01207   0.00710  -0.0621  0.3108  0.7939
   7.890   1.1893   0.01171   0.00678  -0.0639  0.3194  0.7937
   7.900   1.1866   0.01182   0.00689  -0.0634  0.3172  0.7938
   7.910   1.2109   0.01116   0.00631  -0.0671  0.3350  0.7935
   7.920   1.1643   0.01261   0.00759  -0.0597  0.3003  0.7942
   7.930   1.1890   0.01186   0.00692  -0.0633  0.3172  0.7939
   7.940   1.1978   0.01163   0.00672  -0.0645  0.3233  0.7938
   7.950   1.1939   0.01177   0.00686  -0.0637  0.3197  0.7939
   7.960   1.1965   0.01173   0.00682  -0.0640  0.3212  0.7939
   7.970   1.1793   0.01230   0.00733  -0.0612  0.3083  0.7942
   7.990   1.1944   0.01190   0.00697  -0.0632  0.3179  0.7941
   8.010   1.1880   0.01217   0.00722  -0.0619  0.3127  0.7943
   8.030   1.2026   0.01179   0.00689  -0.0639  0.3219  0.7941
   8.040   1.1742   0.01273   0.00773  -0.0594  0.3016  0.7948
   8.050   1.1592   0.01331   0.00826  -0.0571  0.2910  0.7952
   8.060   1.1791   0.01265   0.00766  -0.0599  0.3043  0.7948
   8.070   1.1968   0.01211   0.00718  -0.0624  0.3160  0.7944
   8.080   1.1947   0.01221   0.00727  -0.0619  0.3142  0.7946
   8.090   1.1784   0.01278   0.00779  -0.0593  0.3022  0.7950
   8.100   1.1866   0.01254   0.00758  -0.0604  0.3073  0.7949
   8.110   1.1721   0.01308   0.00807  -0.0581  0.2971  0.7953
   8.120   1.1957   0.01232   0.00738  -0.0614  0.3126  0.7948
   8.130   1.1687   0.01329   0.00827  -0.0574  0.2942  0.7955
   8.140   1.1807   0.01290   0.00791  -0.0590  0.3014  0.7953
   8.150   1.1799   0.01297   0.00798  -0.0587  0.3003  0.7954
   8.160   1.1711   0.01333   0.00831  -0.0573  0.2945  0.7957
   8.170   1.1721   0.01334   0.00832  -0.0573  0.2947  0.7957
   8.180   1.1778   0.01316   0.00817  -0.0580  0.2977  0.7957
   8.190   1.1846   0.01296   0.00798  -0.0588  0.3018  0.7956
   8.200   1.1708   0.01351   0.00849  -0.0567  0.2923  0.7960
   8.210   1.1536   0.01425   0.00917  -0.0543  0.2804  0.7964
   8.220   1.1539   0.01428   0.00921  -0.0542  0.2801  0.7965
   8.230   1.1852   0.01310   0.00812  -0.0583  0.3003  0.7958
   8.240   1.1780   0.01341   0.00841  -0.0572  0.2957  0.7961
   8.250   1.1589   0.01421   0.00915  -0.0545  0.2824  0.7966
   8.260   1.1611   0.01417   0.00912  -0.0547  0.2835  0.7966
   8.270   1.1788   0.01351   0.00851  -0.0569  0.2949  0.7963
   8.280   1.1677   0.01399   0.00896  -0.0553  0.2870  0.7966
   8.290   1.1550   0.01457   0.00950  -0.0535  0.2781  0.7969
   8.300   1.1664   0.01414   0.00910  -0.0548  0.2855  0.7967
   8.310   1.1639   0.01429   0.00924  -0.0544  0.2832  0.7968
   8.320   1.1680   0.01417   0.00913  -0.0548  0.2859  0.7968
   8.330   1.1256   0.01615   0.01098  -0.0494  0.2575  0.7977
   8.340   1.1513   0.01499   0.00990  -0.0524  0.2738  0.7973
   8.350   1.1960   0.01320   0.00825  -0.0582  0.3024  0.7964
   8.360   1.1874   0.01357   0.00860  -0.0569  0.2966  0.7967
   8.370   1.1643   0.01457   0.00952  -0.0537  0.2807  0.7972
   8.380   1.1793   0.01398   0.00898  -0.0555  0.2901  0.7970
   8.390   1.1469   0.01545   0.01035  -0.0513  0.2687  0.7977
   8.400   1.1930   0.01352   0.00857  -0.0571  0.2982  0.7968
   8.410   1.1483   0.01549   0.01040  -0.0512  0.2687  0.7978
   8.420   1.1490   0.01551   0.01042  -0.0512  0.2689  0.7978
   8.430   1.1444   0.01579   0.01068  -0.0505  0.2659  0.7980
   8.440   1.1552   0.01533   0.01025  -0.0517  0.2721  0.7978
   8.450   1.1451   0.01586   0.01075  -0.0504  0.2655  0.7981
   8.460   1.1689   0.01481   0.00977  -0.0532  0.2801  0.7977
   8.470   1.1585   0.01534   0.01027  -0.0518  0.2731  0.7979
   8.480   1.1339   0.01659   0.01144  -0.0487  0.2571  0.7985
   8.490   1.1649   0.01514   0.01009  -0.0523  0.2768  0.7979
   8.500   1.1782   0.01460   0.00959  -0.0539  0.2850  0.7977
   8.510   1.1236   0.01729   0.01211  -0.0473  0.2488  0.7989
   8.520   1.1577   0.01564   0.01057  -0.0511  0.2704  0.7983
   8.530   1.1681   0.01521   0.01017  -0.0523  0.2771  0.7981
   8.540   1.1394   0.01665   0.01152  -0.0487  0.2581  0.7987
   8.550   1.1001   0.01880   0.01353  -0.0443  0.2312  0.7995
   8.560   1.1365   0.01693   0.01178  -0.0482  0.2554  0.7989
   8.570   1.1562   0.01599   0.01091  -0.0504  0.2678  0.7986
   8.580   1.1346   0.01714   0.01199  -0.0478  0.2531  0.7991
   8.590   1.1450   0.01666   0.01154  -0.0488  0.2594  0.7989
   8.600   1.1399   0.01698   0.01185  -0.0482  0.2562  0.7991
   8.610   1.1533   0.01636   0.01127  -0.0496  0.2643  0.7989
   8.620   1.1160   0.01837   0.01316  -0.0453  0.2394  0.7997
   8.630   1.1391   0.01720   0.01207  -0.0478  0.2542  0.7993
   8.640   1.1398   0.01722   0.01209  -0.0477  0.2543  0.7994
   8.650   1.1083   0.01898   0.01374  -0.0442  0.2327  0.8000
   8.660   1.1683   0.01590   0.01086  -0.0508  0.2718  0.7989
   8.670   1.1358   0.01761   0.01247  -0.0470  0.2504  0.7996
   8.680   1.1184   0.01861   0.01340  -0.0450  0.2389  0.8000
   8.690   1.1089   0.01919   0.01395  -0.0439  0.2317  0.8003
   8.700   1.1398   0.01758   0.01244  -0.0471  0.2519  0.7998
   8.710   1.1137   0.01906   0.01383  -0.0442  0.2341  0.8003
   8.720   1.1618   0.01656   0.01149  -0.0494  0.2659  0.7995
   8.730   1.1140   0.01916   0.01394  -0.0440  0.2336  0.8004
   8.740   1.0913   0.02049   0.01519  -0.0415  0.2177  0.8009
   8.750   1.1378   0.01799   0.01284  -0.0464  0.2489  0.8001
   8.760   1.1263   0.01868   0.01349  -0.0450  0.2406  0.8004
   8.770   1.1416   0.01791   0.01278  -0.0466  0.2504  0.8002
   8.780   1.0995   0.02029   0.01501  -0.0420  0.2218  0.8011
   8.790   1.1466   0.01776   0.01265  -0.0470  0.2529  0.8002
   8.800   1.1230   0.01911   0.01391  -0.0443  0.2373  0.8007
   8.810   1.1176   0.01947   0.01425  -0.0436  0.2328  0.8009
   8.820   1.1110   0.01990   0.01466  -0.0428  0.2286  0.8011
   8.830   1.1286   0.01898   0.01380  -0.0446  0.2399  0.8008
   8.840   1.1349   0.01870   0.01354  -0.0452  0.2433  0.8008
   8.850   1.1682   0.01699   0.01194  -0.0488  0.2648  0.8002
   8.860   1.1014   0.02069   0.01541  -0.0415  0.2205  0.8015
   8.870   1.1148   0.02001   0.01478  -0.0428  0.2294  0.8014
   8.880   1.1110   0.02028   0.01504  -0.0423  0.2258  0.8015
   8.890   1.1304   0.01926   0.01409  -0.0442  0.2390  0.8012
   8.900   1.1166   0.02010   0.01487  -0.0427  0.2295  0.8015
   8.910   1.1195   0.02000   0.01479  -0.0429  0.2305  0.8016
   8.920   1.1520   0.01827   0.01316  -0.0462  0.2516  0.8010
   8.930   1.1091   0.02071   0.01545  -0.0416  0.2226  0.8019
   8.950   1.0988   0.02142   0.01612  -0.0404  0.2147  0.8022
   8.960   1.1166   0.02048   0.01525  -0.0421  0.2266  0.8019
   8.970   1.1307   0.01975   0.01457  -0.0435  0.2358  0.8017
   8.980   1.0967   0.02173   0.01643  -0.0399  0.2124  0.8024
   8.990   1.1124   0.02091   0.01566  -0.0414  0.2226  0.8022
   9.000   1.1036   0.02147   0.01619  -0.0404  0.2162  0.8024
   9.010   1.1000   0.02174   0.01645  -0.0399  0.2134  0.8025
   9.020   1.1193   0.02071   0.01549  -0.0418  0.2263  0.8022
   9.030   1.1158   0.02097   0.01574  -0.0414  0.2234  0.8024
   9.040   1.1066   0.02156   0.01629  -0.0403  0.2167  0.8026
   9.050   1.1202   0.02086   0.01564  -0.0416  0.2256  0.8024
   9.060   1.1179   0.02105   0.01582  -0.0413  0.2238  0.8026
   9.070   1.1085   0.02164   0.01638  -0.0402  0.2170  0.8028
   9.080   1.1300   0.02050   0.01531  -0.0424  0.2312  0.8025
   9.090   1.1224   0.02099   0.01577  -0.0415  0.2258  0.8027
   9.100   1.0905   0.02287   0.01753  -0.0381  0.2035  0.8032
   9.110   1.1145   0.02156   0.01631  -0.0405  0.2199  0.8029
   9.120   1.0887   0.02310   0.01775  -0.0378  0.2014  0.8034
   9.130   1.1025   0.02238   0.01708  -0.0391  0.2110  0.8033
   9.140   1.0924   0.02302   0.01768  -0.0380  0.2033  0.8035
   9.150   1.1262   0.02116   0.01595  -0.0413  0.2262  0.8030
   9.160   1.1171   0.02174   0.01650  -0.0403  0.2199  0.8032
   9.170   1.0931   0.02318   0.01784  -0.0378  0.2029  0.8036
   9.180   1.0774   0.02414   0.01874  -0.0361  0.1904  0.8039
   9.190   1.1158   0.02201   0.01676  -0.0399  0.2177  0.8034
   9.200   1.1028   0.02281   0.01751  -0.0385  0.2081  0.8036
   9.210   1.0509   0.02587   0.02036  -0.0333  0.1687  0.8044
   9.220   1.0967   0.02329   0.01797  -0.0377  0.2034  0.8039
   9.230   1.0329   0.02707   0.02146  -0.0315  0.1529  0.8047
   9.240   1.1111   0.02260   0.01733  -0.0390  0.2127  0.8038
   9.250   1.1531   0.02029   0.01517  -0.0432  0.2403  0.8032
   9.260   1.0885   0.02403   0.01867  -0.0365  0.1955  0.8042
   9.270   1.1099   0.02286   0.01758  -0.0386  0.2109  0.8040
   9.280   1.0942   0.02383   0.01849  -0.0369  0.1989  0.8042
   9.290   1.1155   0.02267   0.01742  -0.0390  0.2136  0.8040
   9.300   1.0766   0.02498   0.01956  -0.0350  0.1856  0.8046
   9.310   1.1045   0.02344   0.01814  -0.0377  0.2052  0.8043
   9.320   1.0860   0.02457   0.01919  -0.0358  0.1914  0.8046
   9.330   1.0855   0.02467   0.01928  -0.0356  0.1906  0.8046
   9.340   1.0968   0.02408   0.01874  -0.0367  0.1983  0.8045
   9.350   1.0935   0.02433   0.01898  -0.0363  0.1957  0.8046
   9.360   1.0478   0.02706   0.02151  -0.0318  0.1595  0.8052
   9.370   1.1048   0.02382   0.01851  -0.0372  0.2034  0.8046
   9.380   1.0583   0.02658   0.02107  -0.0326  0.1676  0.8052
   9.390   1.0835   0.02518   0.01978  -0.0349  0.1869  0.8049
   9.400   1.0929   0.02470   0.01934  -0.0358  0.1937  0.8049
   9.410   1.0653   0.02638   0.02089  -0.0330  0.1716  0.8052
   9.420   1.1067   0.02403   0.01872  -0.0370  0.2029  0.8048
   9.430   1.0892   0.02512   0.01974  -0.0352  0.1893  0.8051
