  
       XFOIL         Version 6.94
  
 Calculated polar for: 1080                                            
  
 1 1 Reynolds number fixed          Mach number fixed         
  
 xtrf =   1.000 (top)        1.000 (bottom)  
 Mach =   0.000     Re =     2.000 e 6     Ncrit =   9.000
  
  alpha     CL        CD       CDp       CM    Top_Xtr Bot_Xtr
 ------- -------- --------- --------- -------- ------- -------
   6.000   0.9737   0.01045   0.00592  -0.0432  0.4585  0.7490
   6.010   0.9749   0.01046   0.00591  -0.0432  0.4582  0.7453
   6.020   0.9760   0.01047   0.00590  -0.0433  0.4580  0.7437
   6.030   0.9767   0.01047   0.00592  -0.0432  0.4581  0.7454
   6.040   0.9775   0.01048   0.00594  -0.0432  0.4579  0.7480
   6.050   0.9784   0.01049   0.00595  -0.0431  0.4578  0.7498
   6.060   0.9793   0.01049   0.00595  -0.0431  0.4578  0.7476
   6.070   0.9801   0.01050   0.00597  -0.0431  0.4577  0.7492
   6.080   0.9810   0.01051   0.00597  -0.0431  0.4576  0.7496
   6.090   0.9820   0.01052   0.00599  -0.0431  0.4573  0.7516
   6.100   0.9828   0.01054   0.00600  -0.0431  0.4572  0.7522
   6.110   0.9833   0.01055   0.00605  -0.0429  0.4574  0.7588
   6.120   0.9845   0.01054   0.00600  -0.0430  0.4570  0.7487
   6.130   0.9854   0.01055   0.00600  -0.0430  0.4568  0.7473
   6.140   0.9863   0.01055   0.00602  -0.0430  0.4568  0.7491
   6.150   0.9871   0.01056   0.00603  -0.0430  0.4565  0.7494
   6.160   0.9880   0.01057   0.00603  -0.0430  0.4566  0.7489
   6.170   0.9889   0.01058   0.00604  -0.0430  0.4565  0.7488
   6.180   0.9898   0.01059   0.00605  -0.0430  0.4565  0.7498
   6.190   0.9903   0.01061   0.00611  -0.0428  0.4565  0.7587
   6.200   0.9917   0.01060   0.00605  -0.0430  0.4561  0.7459
   6.210   0.9924   0.01062   0.00608  -0.0429  0.4560  0.7519
   6.220   0.9928   0.01064   0.00613  -0.0428  0.4558  0.7585
   6.230   0.9940   0.01063   0.00609  -0.0429  0.4557  0.7500
   6.240   0.9949   0.01063   0.00609  -0.0429  0.4556  0.7482
   6.250   0.9955   0.01067   0.00617  -0.0427  0.4556  0.7606
   6.260   0.9967   0.01066   0.00612  -0.0428  0.4554  0.7515
   6.270   0.9976   0.01067   0.00613  -0.0428  0.4553  0.7519
   6.280   0.9984   0.01067   0.00613  -0.0428  0.4552  0.7505
   6.290   0.9992   0.01068   0.00614  -0.0428  0.4551  0.7487
   6.300   1.0000   0.01070   0.00615  -0.0428  0.4549  0.7519
   6.310   1.0007   0.01070   0.00616  -0.0427  0.4546  0.7500
   6.320   1.0013   0.01072   0.00621  -0.0426  0.4547  0.7586
   6.330   0.9956   0.01092   0.00630  -0.0415  0.4420  0.7514
   6.340   0.9995   0.01084   0.00625  -0.0420  0.4472  0.7517
   6.350   1.0043   0.01074   0.00620  -0.0427  0.4544  0.7517
   6.360   1.0049   0.01074   0.00620  -0.0426  0.4542  0.7495
   6.370   1.0055   0.01076   0.00624  -0.0425  0.4541  0.7568
   6.380   1.0067   0.01077   0.00622  -0.0426  0.4540  0.7517
   6.390   1.0073   0.01078   0.00623  -0.0425  0.4536  0.7514
   6.400   1.0080   0.01079   0.00628  -0.0424  0.4538  0.7588
   6.410   1.0092   0.01080   0.00625  -0.0425  0.4536  0.7521
   6.420   1.0098   0.01081   0.00626  -0.0425  0.4533  0.7524
   6.430   1.0108   0.01081   0.00626  -0.0425  0.4534  0.7490
   6.440   1.0113   0.01084   0.00628  -0.0424  0.4530  0.7523
   6.450   1.0122   0.01085   0.00634  -0.0424  0.4534  0.7615
   6.460   1.0126   0.01087   0.00636  -0.0423  0.4529  0.7615
   6.470   1.0134   0.01089   0.00637  -0.0422  0.4528  0.7617
   6.480   1.0143   0.01089   0.00638  -0.0422  0.4528  0.7618
   6.490   1.0151   0.01089   0.00637  -0.0422  0.4527  0.7599
   6.500   1.0155   0.01092   0.00640  -0.0421  0.4523  0.7615
   6.510   1.0163   0.01094   0.00641  -0.0421  0.4522  0.7619
   6.520   1.0172   0.01095   0.00642  -0.0421  0.4522  0.7620
   6.530   1.0183   0.01093   0.00637  -0.0421  0.4520  0.7517
   6.540   1.0189   0.01096   0.00644  -0.0420  0.4521  0.7621
   6.550   1.0175   0.01104   0.00649  -0.0416  0.4498  0.7621
   6.560   1.0206   0.01096   0.00641  -0.0421  0.4518  0.7524
   6.570   1.0205   0.01098   0.00645  -0.0418  0.4514  0.7573
   6.580   1.0217   0.01102   0.00649  -0.0419  0.4515  0.7622
   6.590   1.0207   0.01108   0.00653  -0.0415  0.4449  0.7623
   6.600   1.0235   0.01101   0.00645  -0.0419  0.4513  0.7507
   6.610   1.0236   0.01106   0.00653  -0.0417  0.4509  0.7624
   6.620   1.0236   0.01108   0.00655  -0.0415  0.4499  0.7614
   6.630   1.0249   0.01106   0.00652  -0.0416  0.4478  0.7583
   6.640   1.0259   0.01107   0.00651  -0.0417  0.4507  0.7540
   6.650   1.0265   0.01111   0.00658  -0.0416  0.4505  0.7625
   6.690   1.0296   0.01115   0.00662  -0.0414  0.4500  0.7628
   6.700   1.0307   0.01114   0.00661  -0.0415  0.4497  0.7617
   6.710   1.0319   0.01115   0.00662  -0.0415  0.4469  0.7630
   6.720   1.0326   0.01116   0.00663  -0.0415  0.4495  0.7630
   6.730   1.0334   0.01117   0.00664  -0.0414  0.4496  0.7631
   6.740   1.0343   0.01118   0.00665  -0.0414  0.4496  0.7631
   6.750   1.0354   0.01118   0.00666  -0.0414  0.4493  0.7632
   6.760   1.0362   0.01119   0.00666  -0.0414  0.4494  0.7633
   6.770   1.0372   0.01119   0.00667  -0.0414  0.4490  0.7633
   6.780   1.0381   0.01118   0.00665  -0.0415  0.4492  0.7571
   6.790   1.0389   0.01121   0.00669  -0.0414  0.4489  0.7635
   6.800   1.0399   0.01121   0.00669  -0.0414  0.4488  0.7636
   6.810   1.0407   0.01122   0.00670  -0.0414  0.4486  0.7636
   6.820   1.0417   0.01123   0.00671  -0.0414  0.4483  0.7637
   6.830   1.0424   0.01124   0.00672  -0.0414  0.4469  0.7637
   6.840   1.0436   0.01122   0.00668  -0.0415  0.4485  0.7557
   6.850   1.0443   0.01125   0.00673  -0.0414  0.4479  0.7639
   6.860   1.0452   0.01126   0.00674  -0.0414  0.4481  0.7639
   6.870   1.0461   0.01126   0.00675  -0.0414  0.4478  0.7640
   6.880   1.0470   0.01127   0.00676  -0.0413  0.4479  0.7641
   6.890   1.0478   0.01128   0.00677  -0.0413  0.4477  0.7641
   6.900   1.0487   0.01129   0.00678  -0.0413  0.4472  0.7642
   6.910   1.0495   0.01129   0.00679  -0.0413  0.4471  0.7642
   6.920   1.0505   0.01130   0.00680  -0.0413  0.4472  0.7643
   6.930   1.0512   0.01131   0.00681  -0.0413  0.4468  0.7643
   6.940   1.0522   0.01132   0.00682  -0.0413  0.4468  0.7644
   6.950   1.0530   0.01133   0.00682  -0.0412  0.4468  0.7645
   6.960   1.0538   0.01134   0.00683  -0.0412  0.4464  0.7645
   6.970   1.0547   0.01134   0.00684  -0.0412  0.4465  0.7646
   6.980   1.0555   0.01135   0.00685  -0.0412  0.4461  0.7646
   6.990   1.0564   0.01136   0.00686  -0.0412  0.4465  0.7647
   7.000   1.0506   0.01157   0.00700  -0.0400  0.4338  0.7649
   7.010   1.0576   0.01139   0.00689  -0.0411  0.4449  0.7648
   7.020   1.0576   0.01142   0.00691  -0.0409  0.4434  0.7649
   7.030   1.0598   0.01139   0.00690  -0.0411  0.4457  0.7649
   7.040   1.0607   0.01140   0.00690  -0.0411  0.4456  0.7650
   7.050   1.0611   0.01142   0.00692  -0.0410  0.4449  0.7651
   7.060   1.0623   0.01142   0.00693  -0.0411  0.4452  0.7651
   7.070   1.0628   0.01144   0.00694  -0.0410  0.4447  0.7652
   7.080   1.0534   0.01176   0.00716  -0.0392  0.4281  0.7654
   7.090   1.0635   0.01148   0.00698  -0.0408  0.4431  0.7653
   7.100   1.0654   0.01146   0.00697  -0.0410  0.4445  0.7653
   7.110   1.0614   0.01162   0.00707  -0.0401  0.4357  0.7654
   7.120   1.0666   0.01149   0.00699  -0.0408  0.4436  0.7655
   7.130   1.0657   0.01156   0.00704  -0.0405  0.4417  0.7655
   7.140   1.0650   0.01161   0.00708  -0.0402  0.4404  0.7656
   7.150   1.0695   0.01151   0.00702  -0.0409  0.4439  0.7656
   7.160   1.0701   0.01153   0.00703  -0.0408  0.4436  0.7657
   7.170   1.0641   0.01174   0.00718  -0.0396  0.4321  0.7658
   7.180   1.0717   0.01155   0.00705  -0.0407  0.4433  0.7658
   7.190   1.0727   0.01155   0.00706  -0.0407  0.4434  0.7658
   7.200   1.0697   0.01168   0.00715  -0.0401  0.4397  0.7660
   7.210   1.0734   0.01160   0.00710  -0.0405  0.4423  0.7660
   7.220   1.0697   0.01175   0.00720  -0.0398  0.4335  0.7661
   7.230   1.0730   0.01168   0.00716  -0.0402  0.4405  0.7661
   7.240   1.0694   0.01183   0.00726  -0.0394  0.4315  0.7662
   7.250   1.0744   0.01171   0.00719  -0.0401  0.4403  0.7662
   7.260   1.0765   0.01168   0.00717  -0.0403  0.4412  0.7663
   7.270   1.0752   0.01175   0.00722  -0.0399  0.4353  0.7663
   7.280   1.0745   0.01181   0.00726  -0.0396  0.4331  0.7664
   7.290   1.0764   0.01179   0.00725  -0.0398  0.4344  0.7665
   7.300   1.0802   0.01171   0.00720  -0.0403  0.4414  0.7665
   7.310   1.0811   0.01171   0.00721  -0.0403  0.4414  0.7665
   7.320   1.0820   0.01172   0.00722  -0.0403  0.4415  0.7666
   7.330   1.0812   0.01178   0.00727  -0.0400  0.4402  0.7667
   7.340   1.0818   0.01179   0.00728  -0.0399  0.4370  0.7667
   7.350   1.0827   0.01180   0.00729  -0.0399  0.4393  0.7668
   7.360   1.0838   0.01180   0.00729  -0.0399  0.4385  0.7669
   7.370   1.0794   0.01198   0.00742  -0.0390  0.4304  0.7670
   7.380   1.0853   0.01183   0.00732  -0.0399  0.4395  0.7670
   7.400   1.0842   0.01194   0.00739  -0.0394  0.4322  0.7671
   7.410   1.0834   0.01199   0.00744  -0.0391  0.4309  0.7672
   7.420   1.0886   0.01186   0.00736  -0.0398  0.4398  0.7672
   7.430   1.0851   0.01201   0.00746  -0.0391  0.4308  0.7673
   7.440   1.0902   0.01189   0.00738  -0.0398  0.4361  0.7673
   7.450   1.0915   0.01189   0.00738  -0.0398  0.4392  0.7674
   7.460   1.0867   0.01207   0.00751  -0.0389  0.4289  0.7675
   7.470   1.0933   0.01190   0.00740  -0.0398  0.4386  0.7675
   7.480   1.0884   0.01209   0.00753  -0.0388  0.4297  0.7676
   7.490   1.0950   0.01192   0.00742  -0.0398  0.4388  0.7676
   7.500   1.0901   0.01211   0.00755  -0.0388  0.4285  0.7677
   7.510   1.0910   0.01211   0.00756  -0.0388  0.4286  0.7678
   7.520   1.0918   0.01212   0.00757  -0.0388  0.4293  0.7678
   7.530   1.0927   0.01214   0.00758  -0.0388  0.4277  0.7679
   7.540   1.0964   0.01205   0.00753  -0.0393  0.4323  0.7679
   7.550   1.0887   0.01234   0.00773  -0.0378  0.4189  0.7681
   7.560   1.0898   0.01233   0.00773  -0.0378  0.4200  0.7681
   7.570   1.1019   0.01199   0.00749  -0.0397  0.4373  0.7680
   7.580   1.0965   0.01220   0.00764  -0.0386  0.4259  0.7682
   7.590   1.0980   0.01218   0.00763  -0.0387  0.4288  0.7682
   7.600   1.0998   0.01216   0.00762  -0.0389  0.4307  0.7683
   7.610   1.0996   0.01221   0.00766  -0.0387  0.4271  0.7683
   7.620   1.1007   0.01220   0.00766  -0.0387  0.4289  0.7684
   7.630   1.1014   0.01222   0.00768  -0.0387  0.4273  0.7684
   7.640   1.1068   0.01209   0.00759  -0.0394  0.4342  0.7685
   7.650   1.1024   0.01226   0.00771  -0.0385  0.4255  0.7686
   7.660   1.1031   0.01228   0.00772  -0.0385  0.4251  0.7687
   7.670   1.1101   0.01209   0.00760  -0.0395  0.4354  0.7686
   7.680   1.1045   0.01230   0.00775  -0.0384  0.4244  0.7687
   7.690   1.1059   0.01230   0.00775  -0.0385  0.4253  0.7688
   7.700   1.1078   0.01227   0.00774  -0.0387  0.4298  0.7689
   7.710   1.1130   0.01215   0.00765  -0.0394  0.4342  0.7689
   7.720   1.1136   0.01216   0.00766  -0.0393  0.4338  0.7689
   7.730   1.1085   0.01236   0.00780  -0.0383  0.4237  0.7690
   7.740   1.1090   0.01238   0.00782  -0.0382  0.4231  0.7691
   7.750   1.1094   0.01241   0.00784  -0.0382  0.4226  0.7692
   7.760   1.1146   0.01227   0.00776  -0.0389  0.4312  0.7692
   7.770   1.1173   0.01222   0.00773  -0.0392  0.4329  0.7692
   7.780   1.1089   0.01253   0.00795  -0.0376  0.4198  0.7694
   7.790   1.1151   0.01237   0.00784  -0.0385  0.4262  0.7694
   7.800   1.1151   0.01241   0.00786  -0.0383  0.4245  0.7694
   7.810   1.1212   0.01225   0.00775  -0.0392  0.4334  0.7694
   7.820   1.1123   0.01257   0.00799  -0.0376  0.4197  0.7696
   7.830   1.1183   0.01241   0.00788  -0.0384  0.4253  0.7696
   7.840   1.1139   0.01259   0.00801  -0.0375  0.4189  0.7697
   7.850   1.1141   0.01262   0.00803  -0.0374  0.4170  0.7698
   7.860   1.1229   0.01237   0.00787  -0.0387  0.4308  0.7697
   7.870   1.1164   0.01262   0.00804  -0.0375  0.4185  0.7699
   7.880   1.1219   0.01248   0.00795  -0.0382  0.4242  0.7699
   7.890   1.1193   0.01260   0.00803  -0.0377  0.4206  0.7700
   7.900   1.1186   0.01266   0.00809  -0.0374  0.4174  0.7701
   7.910   1.1218   0.01260   0.00804  -0.0378  0.4213  0.7701
   7.920   1.1205   0.01267   0.00810  -0.0374  0.4180  0.7702
   7.930   1.1245   0.01258   0.00804  -0.0379  0.4222  0.7702
   7.940   1.1232   0.01266   0.00810  -0.0375  0.4204  0.7703
   7.950   1.1234   0.01269   0.00813  -0.0374  0.4193  0.7703
   7.960   1.1273   0.01260   0.00807  -0.0379  0.4223  0.7703
   7.970   1.1312   0.01251   0.00801  -0.0384  0.4279  0.7704
   7.980   1.1295   0.01261   0.00807  -0.0380  0.4229  0.7705
   7.990   1.1268   0.01273   0.00817  -0.0374  0.4191  0.7706
   8.000   1.1242   0.01285   0.00826  -0.0368  0.4127  0.7707
   8.010   1.1283   0.01276   0.00820  -0.0373  0.4183  0.7707
   8.020   1.1277   0.01282   0.00824  -0.0371  0.4150  0.7707
   8.030   1.1284   0.01283   0.00825  -0.0370  0.4148  0.7708
   8.040   1.1365   0.01260   0.00809  -0.0382  0.4256  0.7708
   8.050   1.1382   0.01259   0.00809  -0.0383  0.4281  0.7708
   8.060   1.1383   0.01262   0.00811  -0.0382  0.4257  0.7709
   8.070   1.1330   0.01283   0.00827  -0.0372  0.4169  0.7710
   8.080   1.1397   0.01265   0.00814  -0.0381  0.4251  0.7710
   8.090   1.1367   0.01278   0.00824  -0.0375  0.4209  0.7711
   8.100   1.1350   0.01288   0.00831  -0.0371  0.4157  0.7712
   8.110   1.1368   0.01285   0.00830  -0.0372  0.4181  0.7712
   8.120   1.1369   0.01289   0.00833  -0.0371  0.4161  0.7712
   8.130   1.1388   0.01287   0.00832  -0.0372  0.4187  0.7713
   8.140   1.1356   0.01301   0.00842  -0.0366  0.4119  0.7714
   8.150   1.1399   0.01291   0.00835  -0.0371  0.4168  0.7714
   8.160   1.1431   0.01284   0.00830  -0.0375  0.4211  0.7714
   8.170   1.1375   0.01306   0.00847  -0.0364  0.4112  0.7716
   8.180   1.1361   0.01314   0.00853  -0.0361  0.4079  0.7716
   8.190   1.1478   0.01279   0.00828  -0.0378  0.4233  0.7716
   8.200   1.1384   0.01314   0.00854  -0.0361  0.4094  0.7717
   8.210   1.1399   0.01313   0.00854  -0.0362  0.4103  0.7718
   8.220   1.1465   0.01295   0.00841  -0.0371  0.4183  0.7718
   8.230   1.1396   0.01322   0.00860  -0.0359  0.4061  0.7719
   8.240   1.1464   0.01303   0.00847  -0.0368  0.4143  0.7719
   8.250   1.1487   0.01299   0.00845  -0.0371  0.4174  0.7719
   8.260   1.1440   0.01319   0.00859  -0.0362  0.4103  0.7720
   8.270   1.1481   0.01309   0.00852  -0.0367  0.4132  0.7720
   8.280   1.1504   0.01305   0.00850  -0.0369  0.4152  0.7721
   8.290   1.1461   0.01323   0.00863  -0.0360  0.4090  0.7721
   8.300   1.1417   0.01342   0.00877  -0.0352  0.4010  0.7722
   8.310   1.1445   0.01337   0.00874  -0.0355  0.4029  0.7723
   8.320   1.1593   0.01291   0.00841  -0.0377  0.4236  0.7722
   8.330   1.1602   0.01292   0.00842  -0.0377  0.4235  0.7722
   8.340   1.1543   0.01315   0.00859  -0.0366  0.4133  0.7723
   8.350   1.1572   0.01309   0.00855  -0.0370  0.4169  0.7723
   8.360   1.1524   0.01329   0.00870  -0.0360  0.4094  0.7725
   8.370   1.1537   0.01329   0.00870  -0.0361  0.4102  0.7725
   8.380   1.1537   0.01333   0.00873  -0.0359  0.4082  0.7725
   8.390   1.1549   0.01332   0.00873  -0.0360  0.4089  0.7725
   8.400   1.1553   0.01335   0.00876  -0.0359  0.4075  0.7726
   8.410   1.1590   0.01326   0.00870  -0.0364  0.4118  0.7726
   8.430   1.1285   0.01439   0.00957  -0.0312  0.3699  0.7732
   8.440   1.1388   0.01407   0.00932  -0.0327  0.3818  0.7732
   8.450   1.1602   0.01338   0.00880  -0.0360  0.4094  0.7729
   8.460   1.1630   0.01332   0.00876  -0.0363  0.4114  0.7729
   8.470   1.1623   0.01338   0.00881  -0.0360  0.4103  0.7731
   8.480   1.1619   0.01343   0.00885  -0.0358  0.4072  0.7731
   8.490   1.1582   0.01359   0.00898  -0.0350  0.4014  0.7733
   8.500   1.1621   0.01350   0.00891  -0.0355  0.4047  0.7733
   8.510   1.1623   0.01353   0.00893  -0.0354  0.4039  0.7734
   8.520   1.1638   0.01352   0.00893  -0.0355  0.4047  0.7734
   8.530   1.1578   0.01376   0.00912  -0.0344  0.3960  0.7736
   8.540   1.1647   0.01356   0.00897  -0.0353  0.4037  0.7736
   8.550   1.1625   0.01367   0.00906  -0.0348  0.4009  0.7737
   8.560   1.1684   0.01351   0.00894  -0.0357  0.4069  0.7737
   8.570   1.1736   0.01337   0.00884  -0.0364  0.4128  0.7737
   8.580   1.1691   0.01356   0.00899  -0.0355  0.4052  0.7739
   8.590   1.1661   0.01370   0.00910  -0.0348  0.4011  0.7740
   8.600   1.1715   0.01356   0.00900  -0.0356  0.4063  0.7740
   8.610   1.1764   0.01343   0.00890  -0.0362  0.4121  0.7740
   8.620   1.1727   0.01360   0.00903  -0.0354  0.4055  0.7741
   8.630   1.1783   0.01344   0.00892  -0.0362  0.4124  0.7741
   8.640   1.1689   0.01380   0.00920  -0.0346  0.3997  0.7743
   8.650   1.1720   0.01373   0.00915  -0.0349  0.4019  0.7743
   8.660   1.1721   0.01377   0.00918  -0.0348  0.4012  0.7744
   8.670   1.1764   0.01366   0.00910  -0.0353  0.4049  0.7744
   8.680   1.1743   0.01377   0.00919  -0.0348  0.4017  0.7745
   8.690   1.1765   0.01373   0.00917  -0.0350  0.4030  0.7746
   8.700   1.1735   0.01388   0.00928  -0.0344  0.3986  0.7747
   8.710   1.1734   0.01392   0.00931  -0.0343  0.3969  0.7748
   8.720   1.1727   0.01398   0.00937  -0.0340  0.3946  0.7748
   8.730   1.1818   0.01370   0.00916  -0.0353  0.4056  0.7748
   8.740   1.1751   0.01398   0.00937  -0.0341  0.3956  0.7749
   8.750   1.1773   0.01394   0.00935  -0.0343  0.3978  0.7750
   8.760   1.1762   0.01402   0.00941  -0.0340  0.3947  0.7751
   8.770   1.1791   0.01396   0.00937  -0.0343  0.3981  0.7751
   8.780   1.1831   0.01385   0.00929  -0.0348  0.4021  0.7751
   8.790   1.1736   0.01423   0.00958  -0.0331  0.3884  0.7753
   8.800   1.1778   0.01412   0.00950  -0.0337  0.3926  0.7753
   8.810   1.1734   0.01431   0.00965  -0.0328  0.3856  0.7754
   8.820   1.1716   0.01442   0.00974  -0.0324  0.3823  0.7755
   8.830   1.1822   0.01408   0.00948  -0.0339  0.3948  0.7755
   8.840   1.1803   0.01419   0.00957  -0.0335  0.3917  0.7756
   8.850   1.1824   0.01415   0.00955  -0.0337  0.3931  0.7756
   8.860   1.1814   0.01423   0.00961  -0.0334  0.3912  0.7757
   8.870   1.1732   0.01456   0.00987  -0.0319  0.3795  0.7759
   8.880   1.1908   0.01398   0.00943  -0.0346  0.4015  0.7757
   8.890   1.1885   0.01410   0.00952  -0.0341  0.3967  0.7758
   8.900   1.1759   0.01459   0.00990  -0.0319  0.3800  0.7760
   8.910   1.1762   0.01462   0.00993  -0.0318  0.3790  0.7761
   8.920   1.1786   0.01457   0.00990  -0.0321  0.3811  0.7761
   8.930   1.1736   0.01479   0.01007  -0.0311  0.3736  0.7762
   8.940   1.1845   0.01444   0.00980  -0.0327  0.3855  0.7762
   8.950   1.1823   0.01456   0.00990  -0.0322  0.3822  0.7763
   8.960   1.1920   0.01426   0.00967  -0.0336  0.3932  0.7762
   8.970   1.1830   0.01462   0.00995  -0.0320  0.3814  0.7764
   8.980   1.1862   0.01454   0.00990  -0.0324  0.3835  0.7764
   8.990   1.1908   0.01442   0.00980  -0.0330  0.3889  0.7765
   9.000   1.1757   0.01500   0.01027  -0.0305  0.3702  0.7767
   9.010   1.1738   0.01512   0.01036  -0.0301  0.3662  0.7768
   9.020   1.1932   0.01445   0.00984  -0.0329  0.3890  0.7766
   9.030   1.1682   0.01541   0.01060  -0.0289  0.3580  0.7770
   9.040   1.1704   0.01537   0.01057  -0.0291  0.3601  0.7770
   9.050   1.1925   0.01460   0.00997  -0.0324  0.3842  0.7768
   9.060   1.2037   0.01424   0.00970  -0.0340  0.3983  0.7768
   9.070   1.1890   0.01481   0.01014  -0.0316  0.3785  0.7770
   9.080   1.1803   0.01517   0.01043  -0.0301  0.3672  0.7772
   9.090   1.1826   0.01513   0.01040  -0.0303  0.3692  0.7772
   9.100   1.1922   0.01482   0.01016  -0.0316  0.3798  0.7772
   9.110   1.1916   0.01488   0.01021  -0.0314  0.3775  0.7772
   9.120   1.1768   0.01547   0.01068  -0.0290  0.3598  0.7775
   9.130   1.1834   0.01527   0.01052  -0.0299  0.3658  0.7775
   9.140   1.2029   0.01459   0.01000  -0.0328  0.3882  0.7773
   9.150   1.1698   0.01586   0.01101  -0.0275  0.3486  0.7778
   9.160   1.2014   0.01473   0.01012  -0.0323  0.3840  0.7775
   9.170   1.1584   0.01639   0.01145  -0.0255  0.3348  0.7780
   9.180   1.1900   0.01523   0.01052  -0.0302  0.3692  0.7777
   9.190   1.1829   0.01554   0.01076  -0.0290  0.3601  0.7779
   9.200   1.1745   0.01590   0.01106  -0.0275  0.3496  0.7780
   9.210   1.2022   0.01491   0.01027  -0.0317  0.3810  0.7778
   9.220   1.1957   0.01519   0.01050  -0.0305  0.3720  0.7779
   9.230   1.1985   0.01513   0.01045  -0.0308  0.3738  0.7780
   9.240   1.1716   0.01619   0.01131  -0.0265  0.3432  0.7783
   9.250   1.1846   0.01573   0.01094  -0.0284  0.3556  0.7783
   9.260   1.1730   0.01622   0.01134  -0.0265  0.3431  0.7785
   9.270   1.1915   0.01556   0.01081  -0.0292  0.3622  0.7783
   9.280   1.1933   0.01553   0.01079  -0.0293  0.3631  0.7784
   9.290   1.2076   0.01505   0.01041  -0.0314  0.3792  0.7783
   9.300   1.1734   0.01638   0.01149  -0.0260  0.3399  0.7788
   9.310   1.1677   0.01665   0.01171  -0.0250  0.3331  0.7789
   9.320   1.1486   0.01746   0.01237  -0.0221  0.3107  0.7791
   9.330   1.1672   0.01676   0.01180  -0.0247  0.3305  0.7790
   9.340   1.1942   0.01576   0.01100  -0.0286  0.3584  0.7788
   9.350   1.1743   0.01657   0.01166  -0.0255  0.3362  0.7791
   9.360   1.1928   0.01590   0.01111  -0.0282  0.3550  0.7789
   9.370   1.1967   0.01579   0.01104  -0.0286  0.3586  0.7789
   9.380   1.2010   0.01567   0.01094  -0.0291  0.3625  0.7789
   9.390   1.1803   0.01652   0.01163  -0.0259  0.3393  0.7793
   9.400   1.1963   0.01594   0.01117  -0.0282  0.3553  0.7792
