  
       XFOIL         Version 6.94
  
 Calculated polar for: 1080                                            
  
 1 1 Reynolds number fixed          Mach number fixed         
  
 xtrf =   1.000 (top)        1.000 (bottom)  
 Mach =   0.000     Re =     2.000 e 6     Ncrit =   9.000
  
  alpha     CL        CD       CDp       CM    Top_Xtr Bot_Xtr
 ------- -------- --------- --------- -------- ------- -------
   6.000   0.9506   0.00793   0.00406  -0.0577  0.5921  0.7767
   6.010   0.9517   0.00793   0.00407  -0.0577  0.5922  0.7767
   6.020   0.9520   0.00794   0.00408  -0.0576  0.5918  0.7767
   6.030   0.9531   0.00794   0.00408  -0.0576  0.5919  0.7768
   6.040   0.9536   0.00795   0.00409  -0.0575  0.5916  0.7768
   6.050   0.9550   0.00795   0.00409  -0.0576  0.5918  0.7768
   6.060   0.9549   0.00796   0.00411  -0.0574  0.5912  0.7768
   6.070   0.9563   0.00796   0.00411  -0.0574  0.5914  0.7769
   6.080   0.9567   0.00797   0.00412  -0.0573  0.5911  0.7769
   6.090   0.9582   0.00797   0.00412  -0.0574  0.5913  0.7769
   6.100   0.9584   0.00798   0.00413  -0.0573  0.5910  0.7770
   6.110   0.9596   0.00798   0.00413  -0.0573  0.5910  0.7770
   6.120   0.9601   0.00799   0.00414  -0.0572  0.5908  0.7770
   6.130   0.9616   0.00799   0.00414  -0.0573  0.5910  0.7770
   6.140   0.9622   0.00800   0.00415  -0.0573  0.5908  0.7771
   6.150   0.9621   0.00801   0.00416  -0.0570  0.5903  0.7771
   6.160   0.9640   0.00800   0.00416  -0.0572  0.5906  0.7771
   6.170   0.9644   0.00801   0.00417  -0.0571  0.5904  0.7771
   6.180   0.9651   0.00802   0.00418  -0.0571  0.5902  0.7772
   6.190   0.9658   0.00803   0.00418  -0.0570  0.5901  0.7772
   6.200   0.9672   0.00803   0.00418  -0.0571  0.5902  0.7772
   6.210   0.9681   0.00803   0.00419  -0.0571  0.5902  0.7773
   6.220   0.9687   0.00804   0.00420  -0.0570  0.5900  0.7773
   6.230   0.9695   0.00804   0.00420  -0.0570  0.5899  0.7773
   6.240   0.9704   0.00805   0.00421  -0.0570  0.5899  0.7773
   6.250   0.9709   0.00806   0.00422  -0.0569  0.5896  0.7774
   6.260   0.9717   0.00806   0.00423  -0.0568  0.5895  0.7774
   6.270   0.9730   0.00806   0.00423  -0.0569  0.5896  0.7774
   6.280   0.9733   0.00807   0.00424  -0.0568  0.5893  0.7775
   6.290   0.9741   0.00808   0.00424  -0.0567  0.5892  0.7775
   6.300   0.9754   0.00808   0.00425  -0.0568  0.5893  0.7775
   6.310   0.9763   0.00809   0.00425  -0.0568  0.5893  0.7776
   6.320   0.9767   0.00810   0.00426  -0.0567  0.5890  0.7776
   6.330   0.9770   0.00811   0.00427  -0.0565  0.5887  0.7776
   6.340   0.9787   0.00810   0.00427  -0.0567  0.5890  0.7776
   6.350   0.9790   0.00812   0.00428  -0.0565  0.5887  0.7777
   6.360   0.9801   0.00812   0.00429  -0.0566  0.5887  0.7777
   6.370   0.9808   0.00813   0.00429  -0.0565  0.5886  0.7777
   6.380   0.9801   0.00815   0.00431  -0.0562  0.5878  0.7778
   6.390   0.9822   0.00814   0.00431  -0.0564  0.5883  0.7778
   6.400   0.9838   0.00814   0.00431  -0.0565  0.5886  0.7778
   6.410   0.9834   0.00816   0.00432  -0.0563  0.5880  0.7778
   6.420   0.9852   0.00815   0.00432  -0.0564  0.5883  0.7779
   6.430   0.9860   0.00816   0.00433  -0.0564  0.5882  0.7779
   6.440   0.9858   0.00818   0.00434  -0.0561  0.5876  0.7779
   6.450   0.9875   0.00817   0.00434  -0.0563  0.5879  0.7780
   6.460   0.9877   0.00819   0.00435  -0.0562  0.5876  0.7780
   6.470   0.9887   0.00819   0.00436  -0.0562  0.5876  0.7780
   6.480   0.9899   0.00819   0.00436  -0.0562  0.5877  0.7781
   6.490   0.9906   0.00820   0.00437  -0.0561  0.5875  0.7781
   6.500   0.9910   0.00821   0.00438  -0.0560  0.5873  0.7781
   6.510   0.9913   0.00822   0.00439  -0.0559  0.5870  0.7781
   6.520   0.9928   0.00822   0.00439  -0.0560  0.5872  0.7782
   6.530   0.9930   0.00824   0.00440  -0.0558  0.5868  0.7782
   6.540   0.9945   0.00823   0.00440  -0.0560  0.5870  0.7782
   6.550   0.9952   0.00824   0.00441  -0.0559  0.5869  0.7782
   6.560   0.9962   0.00824   0.00441  -0.0559  0.5869  0.7783
   6.570   0.9961   0.00826   0.00443  -0.0557  0.5864  0.7783
   6.580   0.9980   0.00825   0.00442  -0.0559  0.5868  0.7783
   6.590   0.9979   0.00827   0.00444  -0.0557  0.5864  0.7784
   6.600   0.9989   0.00828   0.00444  -0.0557  0.5864  0.7784
   6.610   0.9996   0.00828   0.00445  -0.0556  0.5862  0.7784
   6.620   1.0003   0.00829   0.00446  -0.0556  0.5861  0.7785
   6.630   1.0013   0.00830   0.00446  -0.0556  0.5861  0.7785
   6.640   1.0025   0.00830   0.00447  -0.0556  0.5861  0.7785
   6.650   1.0032   0.00831   0.00447  -0.0556  0.5860  0.7785
   6.660   1.0036   0.00832   0.00448  -0.0555  0.5858  0.7785
   6.670   1.0042   0.00833   0.00449  -0.0554  0.5856  0.7786
   6.680   1.0049   0.00834   0.00450  -0.0553  0.5855  0.7786
   6.690   1.0059   0.00834   0.00450  -0.0554  0.5855  0.7786
   6.700   1.0067   0.00835   0.00451  -0.0553  0.5854  0.7787
   6.710   1.0075   0.00836   0.00452  -0.0553  0.5853  0.7787
   6.720   1.0083   0.00836   0.00452  -0.0553  0.5853  0.7787
   6.730   1.0091   0.00837   0.00453  -0.0552  0.5851  0.7787
   6.740   1.0097   0.00838   0.00454  -0.0552  0.5850  0.7788
   6.750   1.0104   0.00839   0.00455  -0.0551  0.5848  0.7788
   6.760   1.0114   0.00839   0.00455  -0.0551  0.5848  0.7788
   6.770   1.0122   0.00840   0.00456  -0.0551  0.5847  0.7789
   6.780   1.0130   0.00841   0.00457  -0.0550  0.5846  0.7789
   6.790   1.0140   0.00841   0.00457  -0.0551  0.5846  0.7789
   6.800   1.0145   0.00843   0.00458  -0.0550  0.5843  0.7789
   6.810   1.0156   0.00843   0.00458  -0.0550  0.5843  0.7789
   6.820   1.0165   0.00843   0.00459  -0.0550  0.5843  0.7790
   6.830   1.0175   0.00844   0.00460  -0.0550  0.5843  0.7790
   6.840   1.0182   0.00845   0.00461  -0.0549  0.5842  0.7790
   6.850   1.0184   0.00846   0.00462  -0.0548  0.5839  0.7791
   6.860   1.0190   0.00847   0.00463  -0.0547  0.5837  0.7791
   6.870   1.0202   0.00847   0.00463  -0.0548  0.5838  0.7791
   6.880   1.0207   0.00848   0.00465  -0.0547  0.5835  0.7792
   6.890   1.0216   0.00848   0.00465  -0.0547  0.5835  0.7792
   6.900   1.0219   0.00850   0.00467  -0.0545  0.5831  0.7792
   6.910   1.0232   0.00850   0.00467  -0.0546  0.5833  0.7792
   6.920   1.0246   0.00850   0.00467  -0.0547  0.5835  0.7792
   6.930   1.0252   0.00851   0.00468  -0.0546  0.5833  0.7793
   6.940   1.0260   0.00851   0.00469  -0.0546  0.5831  0.7793
   6.950   1.0268   0.00852   0.00469  -0.0545  0.5831  0.7793
   6.960   1.0279   0.00852   0.00470  -0.0546  0.5831  0.7794
   6.970   1.0286   0.00853   0.00471  -0.0545  0.5829  0.7794
   6.980   1.0294   0.00854   0.00472  -0.0545  0.5828  0.7794
   6.990   1.0304   0.00854   0.00472  -0.0545  0.5828  0.7794
   7.000   1.0308   0.00855   0.00474  -0.0544  0.5825  0.7795
   7.010   1.0317   0.00856   0.00474  -0.0544  0.5824  0.7795
   7.020   1.0327   0.00856   0.00475  -0.0544  0.5824  0.7795
   7.030   1.0332   0.00857   0.00476  -0.0543  0.5821  0.7795
   7.040   1.0340   0.00858   0.00477  -0.0543  0.5820  0.7796
   7.050   1.0352   0.00858   0.00477  -0.0543  0.5821  0.7796
   7.060   1.0360   0.00859   0.00478  -0.0543  0.5820  0.7796
   7.070   1.0366   0.00860   0.00479  -0.0542  0.5817  0.7796
   7.080   1.0379   0.00860   0.00479  -0.0543  0.5819  0.7796
   7.090   1.0385   0.00860   0.00480  -0.0542  0.5817  0.7797
   7.100   1.0393   0.00861   0.00481  -0.0542  0.5815  0.7797
   7.110   1.0402   0.00862   0.00481  -0.0542  0.5815  0.7797
   7.120   1.0409   0.00862   0.00482  -0.0541  0.5813  0.7797
   7.130   1.0415   0.00864   0.00483  -0.0540  0.5810  0.7798
   7.140   1.0426   0.00864   0.00484  -0.0541  0.5811  0.7798
   7.150   1.0433   0.00865   0.00485  -0.0540  0.5809  0.7798
   7.160   1.0443   0.00865   0.00485  -0.0540  0.5809  0.7798
   7.170   1.0445   0.00867   0.00487  -0.0539  0.5804  0.7799
   7.180   1.0454   0.00867   0.00487  -0.0539  0.5803  0.7799
   7.190   1.0462   0.00868   0.00488  -0.0538  0.5802  0.7799
   7.200   1.0476   0.00868   0.00488  -0.0539  0.5805  0.7799
   7.210   1.0477   0.00869   0.00490  -0.0538  0.5800  0.7799
   7.220   1.0488   0.00870   0.00490  -0.0538  0.5800  0.7800
   7.230   1.0490   0.00871   0.00492  -0.0536  0.5796  0.7800
   7.240   1.0497   0.00872   0.00493  -0.0536  0.5794  0.7800
   7.250   1.0505   0.00873   0.00494  -0.0536  0.5794  0.7800
   7.260   1.0517   0.00873   0.00494  -0.0536  0.5795  0.7801
   7.270   1.0523   0.00874   0.00495  -0.0535  0.5793  0.7801
   7.280   1.0531   0.00875   0.00496  -0.0535  0.5792  0.7801
   7.290   1.0544   0.00875   0.00496  -0.0535  0.5793  0.7801
   7.300   1.0548   0.00876   0.00497  -0.0535  0.5791  0.7801
   7.310   1.0553   0.00878   0.00498  -0.0534  0.5788  0.7802
   7.320   1.0565   0.00878   0.00499  -0.0534  0.5790  0.7802
   7.330   1.0566   0.00879   0.00500  -0.0532  0.5785  0.7802
   7.340   1.0568   0.00881   0.00502  -0.0531  0.5781  0.7802
   7.350   1.0585   0.00880   0.00501  -0.0533  0.5785  0.7802
   7.360   1.0596   0.00881   0.00502  -0.0533  0.5785  0.7802
   7.370   1.0596   0.00883   0.00504  -0.0531  0.5780  0.7803
   7.380   1.0604   0.00884   0.00505  -0.0531  0.5780  0.7803
   7.390   1.0599   0.00886   0.00507  -0.0528  0.5773  0.7803
   7.420   1.0629   0.00887   0.00508  -0.0528  0.5773  0.7804
   7.430   1.0644   0.00887   0.00508  -0.0529  0.5776  0.7804
   7.440   1.0643   0.00889   0.00510  -0.0527  0.5771  0.7805
   7.450   1.0653   0.00889   0.00510  -0.0527  0.5771  0.7805
   7.460   1.0663   0.00890   0.00511  -0.0527  0.5771  0.7806
   7.470   1.0663   0.00892   0.00513  -0.0525  0.5767  0.7806
   7.480   1.0667   0.00893   0.00514  -0.0524  0.5765  0.7807
   7.490   1.0684   0.00892   0.00513  -0.0526  0.5768  0.7807
   7.500   1.0686   0.00894   0.00515  -0.0524  0.5765  0.7808
   7.510   1.0686   0.00896   0.00517  -0.0523  0.5761  0.7808
   7.520   1.0707   0.00894   0.00516  -0.0525  0.5765  0.7808
   7.530   1.0706   0.00896   0.00518  -0.0523  0.5761  0.7809
   7.540   1.0717   0.00896   0.00518  -0.0523  0.5762  0.7809
   7.550   1.0724   0.00897   0.00519  -0.0522  0.5760  0.7810
   7.560   1.0728   0.00899   0.00520  -0.0521  0.5758  0.7810
   7.570   1.0729   0.00901   0.00522  -0.0520  0.5755  0.7811
   7.580   1.0746   0.00900   0.00521  -0.0521  0.5757  0.7811
   7.590   1.0731   0.00905   0.00525  -0.0517  0.5748  0.7812
   7.600   1.0752   0.00903   0.00524  -0.0519  0.5752  0.7812
   7.610   1.0762   0.00903   0.00525  -0.0519  0.5752  0.7812
   7.620   1.0763   0.00905   0.00527  -0.0517  0.5749  0.7813
   7.630   1.0782   0.00904   0.00526  -0.0519  0.5753  0.7813
   7.640   1.0772   0.00908   0.00529  -0.0515  0.5745  0.7813
   7.650   1.0789   0.00907   0.00529  -0.0517  0.5748  0.7814
   7.660   1.0798   0.00908   0.00529  -0.0517  0.5748  0.7814
   7.670   1.0797   0.00910   0.00531  -0.0515  0.5744  0.7814
   7.680   1.0805   0.00911   0.00532  -0.0514  0.5742  0.7815
   7.690   1.0813   0.00912   0.00533  -0.0514  0.5741  0.7815
   7.700   1.0820   0.00912   0.00534  -0.0514  0.5740  0.7816
   7.710   1.0831   0.00913   0.00535  -0.0514  0.5741  0.7816
   7.720   1.0839   0.00913   0.00535  -0.0514  0.5740  0.7816
   7.730   1.0844   0.00915   0.00537  -0.0513  0.5736  0.7817
   7.740   1.0851   0.00915   0.00538  -0.0512  0.5733  0.7817
   7.750   1.0860   0.00916   0.00539  -0.0512  0.5733  0.7817
   7.760   1.0868   0.00917   0.00540  -0.0512  0.5731  0.7817
   7.770   1.0875   0.00918   0.00541  -0.0511  0.5729  0.7818
   7.780   1.0882   0.00919   0.00542  -0.0511  0.5727  0.7818
   7.790   1.0889   0.00919   0.00543  -0.0510  0.5724  0.7818
   7.800   1.0899   0.00920   0.00544  -0.0511  0.5725  0.7819
   7.810   1.0909   0.00920   0.00544  -0.0511  0.5726  0.7819
   7.820   1.0919   0.00921   0.00545  -0.0511  0.5726  0.7819
   7.830   1.0928   0.00921   0.00545  -0.0511  0.5726  0.7820
   7.840   1.0934   0.00922   0.00547  -0.0510  0.5722  0.7820
   7.850   1.0942   0.00923   0.00548  -0.0510  0.5721  0.7820
   7.860   1.0951   0.00923   0.00548  -0.0510  0.5720  0.7821
   7.870   1.0956   0.00925   0.00550  -0.0509  0.5716  0.7821
   7.880   1.0963   0.00926   0.00551  -0.0508  0.5714  0.7821
   7.890   1.0975   0.00926   0.00551  -0.0509  0.5717  0.7822
   7.900   1.0983   0.00926   0.00552  -0.0508  0.5715  0.7822
   7.910   1.0993   0.00927   0.00553  -0.0508  0.5715  0.7822
   7.920   1.0995   0.00929   0.00555  -0.0507  0.5709  0.7822
   7.930   1.1009   0.00928   0.00554  -0.0508  0.5712  0.7823
   7.940   1.1004   0.00932   0.00558  -0.0505  0.5701  0.7823
   7.950   1.1016   0.00931   0.00558  -0.0506  0.5704  0.7823
   7.960   1.1029   0.00931   0.00558  -0.0506  0.5705  0.7824
   7.970   1.1035   0.00932   0.00559  -0.0506  0.5703  0.7824
   7.980   1.1042   0.00933   0.00560  -0.0505  0.5701  0.7824
   7.990   1.1048   0.00935   0.00561  -0.0505  0.5699  0.7825
   8.000   1.1053   0.00936   0.00563  -0.0504  0.5695  0.7825
   8.010   1.1054   0.00938   0.00565  -0.0502  0.5690  0.7825
   8.020   1.1057   0.00940   0.00566  -0.0501  0.5686  0.7826
   8.030   1.1074   0.00939   0.00566  -0.0502  0.5690  0.7826
   8.040   1.1083   0.00939   0.00567  -0.0502  0.5690  0.7826
   8.050   1.1086   0.00941   0.00568  -0.0501  0.5686  0.7827
   8.060   1.1101   0.00941   0.00568  -0.0502  0.5689  0.7827
   8.070   1.1106   0.00942   0.00569  -0.0501  0.5687  0.7827
   8.080   1.1107   0.00944   0.00571  -0.0500  0.5682  0.7827
   8.090   1.1115   0.00945   0.00572  -0.0499  0.5681  0.7828
   8.100   1.1126   0.00945   0.00573  -0.0500  0.5682  0.7828
   8.110   1.1102   0.00953   0.00579  -0.0494  0.5667  0.7829
   8.120   1.1128   0.00950   0.00577  -0.0497  0.5674  0.7829
   8.130   1.1144   0.00949   0.00577  -0.0498  0.5677  0.7829
   8.140   1.1147   0.00951   0.00578  -0.0497  0.5674  0.7829
   8.150   1.1147   0.00953   0.00581  -0.0495  0.5670  0.7830
   8.160   1.1164   0.00952   0.00580  -0.0496  0.5673  0.7830
   8.170   1.1166   0.00954   0.00582  -0.0495  0.5670  0.7830
   8.180   1.1170   0.00956   0.00584  -0.0494  0.5668  0.7831
   8.190   1.1164   0.00960   0.00587  -0.0491  0.5662  0.7831
   8.200   1.1163   0.00962   0.00589  -0.0489  0.5658  0.7831
   8.210   1.1188   0.00960   0.00587  -0.0492  0.5664  0.7831
   8.220   1.1175   0.00965   0.00592  -0.0488  0.5655  0.7832
   8.230   1.1198   0.00963   0.00590  -0.0490  0.5660  0.7832
   8.240   1.1196   0.00966   0.00593  -0.0488  0.5656  0.7832
   8.250   1.1209   0.00965   0.00593  -0.0489  0.5658  0.7833
   8.260   1.1210   0.00968   0.00595  -0.0487  0.5655  0.7833
   8.270   1.1212   0.00970   0.00597  -0.0486  0.5652  0.7833
   8.280   1.1214   0.00972   0.00599  -0.0485  0.5649  0.7834
   8.290   1.1222   0.00973   0.00600  -0.0484  0.5649  0.7834
   8.300   1.1223   0.00975   0.00602  -0.0483  0.5646  0.7834
   8.310   1.1228   0.00977   0.00604  -0.0482  0.5643  0.7835
   8.320   1.1235   0.00978   0.00605  -0.0481  0.5639  0.7835
   8.330   1.1243   0.00979   0.00606  -0.0481  0.5636  0.7835
   8.340   1.1256   0.00978   0.00606  -0.0482  0.5642  0.7835
   8.350   1.1264   0.00979   0.00607  -0.0482  0.5641  0.7836
   8.360   1.1272   0.00980   0.00608  -0.0481  0.5638  0.7836
   8.370   1.1280   0.00981   0.00609  -0.0481  0.5634  0.7836
   8.380   1.1291   0.00981   0.00609  -0.0481  0.5638  0.7837
   8.390   1.1295   0.00983   0.00611  -0.0480  0.5630  0.7837
   8.400   1.1305   0.00983   0.00612  -0.0480  0.5629  0.7837
   8.410   1.1313   0.00984   0.00613  -0.0480  0.5629  0.7837
   8.420   1.1321   0.00985   0.00614  -0.0480  0.5628  0.7838
   8.430   1.1328   0.00986   0.00615  -0.0479  0.5623  0.7838
   8.440   1.1339   0.00986   0.00615  -0.0480  0.5626  0.7838
   8.450   1.1346   0.00987   0.00617  -0.0479  0.5622  0.7839
   8.460   1.1356   0.00988   0.00617  -0.0479  0.5623  0.7839
   8.470   1.1352   0.00991   0.00621  -0.0477  0.5609  0.7839
   8.480   1.1352   0.00994   0.00623  -0.0475  0.5602  0.7840
   8.490   1.1374   0.00991   0.00621  -0.0478  0.5613  0.7840
   8.500   1.1381   0.00993   0.00623  -0.0477  0.5610  0.7840
   8.510   1.1390   0.00993   0.00623  -0.0477  0.5611  0.7840
   8.520   1.1396   0.00995   0.00625  -0.0476  0.5607  0.7841
   8.530   1.1386   0.00999   0.00629  -0.0473  0.5594  0.7841
   8.540   1.1410   0.00997   0.00627  -0.0476  0.5605  0.7841
   8.550   1.1418   0.00998   0.00628  -0.0475  0.5603  0.7842
   8.560   1.1419   0.01000   0.00631  -0.0474  0.5597  0.7842
   8.570   1.1426   0.01001   0.00632  -0.0473  0.5596  0.7842
   8.580   1.1437   0.01001   0.00632  -0.0473  0.5597  0.7843
   8.590   1.1438   0.01004   0.00635  -0.0472  0.5592  0.7843
   8.600   1.1439   0.01006   0.00637  -0.0471  0.5587  0.7843
   8.610   1.1454   0.01006   0.00637  -0.0471  0.5591  0.7844
   8.620   1.1458   0.01008   0.00638  -0.0471  0.5587  0.7844
   8.630   1.1458   0.01010   0.00641  -0.0469  0.5582  0.7844
   8.640   1.1462   0.01012   0.00643  -0.0468  0.5580  0.7845
   8.650   1.1480   0.01011   0.00642  -0.0469  0.5584  0.7845
   8.660   1.1483   0.01013   0.00644  -0.0468  0.5581  0.7845
   8.670   1.1481   0.01016   0.00647  -0.0466  0.5576  0.7846
   8.680   1.1449   0.01026   0.00656  -0.0459  0.5557  0.7846
   8.690   1.1488   0.01020   0.00651  -0.0464  0.5570  0.7846
   8.700   1.1499   0.01020   0.00651  -0.0464  0.5571  0.7847
   8.710   1.1484   0.01026   0.00657  -0.0460  0.5560  0.7847
   8.720   1.1491   0.01027   0.00658  -0.0460  0.5560  0.7848
   8.730   1.1510   0.01026   0.00657  -0.0461  0.5564  0.7848
   8.740   1.1473   0.01037   0.00667  -0.0453  0.5545  0.7848
   8.750   1.1519   0.01029   0.00660  -0.0460  0.5560  0.7849
   8.760   1.1492   0.01039   0.00668  -0.0453  0.5546  0.7849
   8.770   1.1525   0.01033   0.00664  -0.0457  0.5555  0.7849
   8.780   1.1515   0.01039   0.00669  -0.0454  0.5547  0.7850
   8.790   1.1543   0.01035   0.00666  -0.0457  0.5555  0.7850
   8.800   1.1527   0.01042   0.00672  -0.0452  0.5541  0.7850
   8.810   1.1525   0.01045   0.00675  -0.0450  0.5524  0.7851
   8.820   1.1544   0.01043   0.00673  -0.0452  0.5540  0.7851
   8.830   1.1552   0.01044   0.00675  -0.0452  0.5537  0.7851
   8.840   1.1560   0.01045   0.00675  -0.0452  0.5537  0.7851
   8.850   1.1544   0.01052   0.00682  -0.0447  0.5506  0.7852
   8.860   1.1577   0.01046   0.00677  -0.0452  0.5533  0.7852
   8.870   1.1578   0.01049   0.00680  -0.0450  0.5524  0.7852
   8.880   1.1587   0.01050   0.00681  -0.0450  0.5523  0.7853
   8.890   1.1599   0.01050   0.00681  -0.0450  0.5527  0.7853
   8.900   1.1604   0.01051   0.00683  -0.0450  0.5522  0.7853
   8.910   1.1602   0.01055   0.00686  -0.0447  0.5511  0.7854
   8.920   1.1622   0.01053   0.00685  -0.0450  0.5522  0.7854
   8.930   1.1607   0.01059   0.00691  -0.0445  0.5500  0.7854
   8.940   1.1627   0.01057   0.00689  -0.0447  0.5509  0.7854
   8.950   1.1640   0.01057   0.00689  -0.0448  0.5513  0.7855
   8.960   1.1632   0.01062   0.00694  -0.0445  0.5499  0.7855
   8.970   1.1650   0.01060   0.00693  -0.0446  0.5506  0.7855
   8.980   1.1655   0.01062   0.00695  -0.0445  0.5503  0.7856
   8.990   1.1656   0.01065   0.00697  -0.0444  0.5497  0.7856
   9.000   1.1659   0.01067   0.00699  -0.0443  0.5494  0.7857
   9.010   1.1629   0.01078   0.00709  -0.0436  0.5471  0.7857
   9.020   1.1663   0.01072   0.00704  -0.0440  0.5484  0.7857
   9.030   1.1645   0.01080   0.00711  -0.0435  0.5470  0.7858
   9.040   1.1636   0.01085   0.00716  -0.0432  0.5461  0.7859
   9.050   1.1660   0.01082   0.00714  -0.0435  0.5469  0.7859
   9.060   1.1687   0.01078   0.00710  -0.0438  0.5478  0.7859
   9.070   1.1693   0.01079   0.00712  -0.0437  0.5477  0.7859
   9.080   1.1671   0.01088   0.00720  -0.0432  0.5462  0.7860
   9.090   1.1661   0.01094   0.00725  -0.0428  0.5454  0.7860
   9.100   1.1651   0.01100   0.00730  -0.0425  0.5444  0.7861
   9.110   1.1660   0.01100   0.00731  -0.0425  0.5446  0.7861
   9.120   1.1665   0.01102   0.00732  -0.0424  0.5439  0.7861
   9.130   1.1674   0.01103   0.00733  -0.0424  0.5438  0.7861
   9.140   1.1711   0.01096   0.00728  -0.0429  0.5457  0.7862
   9.150   1.1712   0.01099   0.00730  -0.0427  0.5453  0.7862
   9.160   1.1682   0.01110   0.00741  -0.0421  0.5414  0.7863
   9.170   1.1708   0.01106   0.00737  -0.0424  0.5436  0.7863
   9.180   1.1720   0.01106   0.00737  -0.0424  0.5440  0.7863
   9.190   1.1728   0.01107   0.00738  -0.0424  0.5439  0.7864
   9.200   1.1613   0.01142   0.00769  -0.0402  0.5354  0.7865
   9.210   1.1654   0.01134   0.00763  -0.0408  0.5367  0.7865
   9.220   1.1696   0.01125   0.00755  -0.0413  0.5385  0.7865
   9.230   1.1744   0.01115   0.00747  -0.0420  0.5414  0.7865
   9.240   1.1750   0.01117   0.00748  -0.0420  0.5412  0.7865
   9.250   1.1762   0.01116   0.00748  -0.0420  0.5415  0.7865
   9.260   1.1770   0.01118   0.00750  -0.0420  0.5413  0.7866
   9.270   1.1748   0.01127   0.00758  -0.0414  0.5390  0.7866
   9.280   1.1773   0.01123   0.00755  -0.0417  0.5401  0.7867
   9.290   1.1734   0.01137   0.00768  -0.0409  0.5372  0.7867
   9.300   1.1788   0.01125   0.00757  -0.0416  0.5399  0.7867
   9.310   1.1779   0.01131   0.00763  -0.0413  0.5387  0.7868
   9.320   1.1784   0.01133   0.00765  -0.0412  0.5385  0.7868
   9.330   1.1746   0.01147   0.00777  -0.0404  0.5362  0.7869
   9.340   1.1789   0.01138   0.00769  -0.0410  0.5379  0.7869
   9.350   1.1747   0.01153   0.00783  -0.0401  0.5355  0.7870
   9.360   1.1730   0.01161   0.00790  -0.0397  0.5336  0.7870
   9.370   1.1779   0.01150   0.00781  -0.0404  0.5361  0.7870
   9.380   1.1801   0.01147   0.00779  -0.0406  0.5368  0.7870
   9.390   1.1799   0.01151   0.00783  -0.0404  0.5362  0.7871
   9.400   1.1768   0.01163   0.00793  -0.0397  0.5341  0.7871
   9.410   1.1763   0.01168   0.00798  -0.0394  0.5323  0.7872
   9.420   1.1788   0.01164   0.00795  -0.0397  0.5342  0.7872
   9.430   1.1795   0.01165   0.00796  -0.0397  0.5340  0.7872
   9.440   1.1796   0.01168   0.00799  -0.0395  0.5331  0.7873
   9.450   1.1820   0.01165   0.00796  -0.0398  0.5349  0.7873
   9.460   1.1823   0.01167   0.00798  -0.0397  0.5345  0.7873
   9.470   1.1795   0.01179   0.00809  -0.0390  0.5304  0.7874
   9.480   1.1802   0.01180   0.00810  -0.0390  0.5302  0.7874
   9.490   1.1818   0.01179   0.00809  -0.0391  0.5308  0.7874
   9.500   1.1805   0.01186   0.00816  -0.0387  0.5291  0.7875
   9.510   1.1750   0.01205   0.00833  -0.0377  0.5258  0.7876
   9.520   1.1818   0.01189   0.00819  -0.0387  0.5288  0.7876
   9.530   1.1788   0.01201   0.00830  -0.0380  0.5267  0.7876
   9.540   1.1755   0.01214   0.00842  -0.0373  0.5250  0.7877
   9.550   1.1761   0.01216   0.00843  -0.0372  0.5248  0.7877
   9.560   1.1781   0.01213   0.00842  -0.0374  0.5253  0.7878
   9.570   1.1744   0.01228   0.00855  -0.0366  0.5215  0.7878
   9.580   1.1828   0.01206   0.00836  -0.0379  0.5266  0.7878
   9.590   1.1817   0.01213   0.00842  -0.0375  0.5258  0.7878
   9.600   1.1801   0.01221   0.00850  -0.0371  0.5245  0.7879
   9.610   1.1747   0.01241   0.00867  -0.0360  0.5189  0.7880
   9.620   1.1823   0.01222   0.00850  -0.0372  0.5251  0.7879
   9.630   1.1804   0.01231   0.00859  -0.0367  0.5221  0.7880
   9.640   1.1816   0.01231   0.00859  -0.0367  0.5226  0.7880
   9.650   1.1794   0.01241   0.00868  -0.0362  0.5199  0.7881
   9.660   1.1763   0.01254   0.00880  -0.0355  0.5173  0.7882
   9.670   1.1713   0.01273   0.00897  -0.0345  0.5137  0.7883
   9.680   1.1845   0.01236   0.00865  -0.0366  0.5220  0.7882
   9.690   1.1769   0.01263   0.00889  -0.0352  0.5162  0.7883
   9.700   1.1826   0.01249   0.00876  -0.0360  0.5191  0.7883
   9.710   1.1755   0.01274   0.00899  -0.0346  0.5146  0.7884
   9.720   1.1823   0.01257   0.00884  -0.0356  0.5178  0.7883
   9.730   1.1775   0.01275   0.00900  -0.0347  0.5148  0.7884
   9.740   1.1725   0.01295   0.00918  -0.0337  0.5101  0.7885
   9.750   1.1824   0.01267   0.00894  -0.0352  0.5165  0.7885
   9.760   1.1731   0.01300   0.00923  -0.0335  0.5094  0.7886
   9.770   1.1796   0.01283   0.00908  -0.0344  0.5137  0.7886
   9.780   1.1806   0.01284   0.00909  -0.0344  0.5138  0.7886
   9.790   1.1676   0.01329   0.00950  -0.0321  0.5051  0.7888
   9.800   1.1807   0.01290   0.00916  -0.0341  0.5125  0.7887
   9.810   1.1803   0.01296   0.00921  -0.0339  0.5115  0.7887
   9.820   1.1759   0.01313   0.00937  -0.0330  0.5080  0.7888
   9.830   1.1709   0.01333   0.00955  -0.0321  0.5049  0.7889
   9.840   1.1581   0.01379   0.00996  -0.0298  0.4958  0.7890
   9.850   1.1727   0.01335   0.00956  -0.0321  0.5052  0.7889
   9.860   1.1679   0.01354   0.00974  -0.0311  0.5003  0.7890
   9.870   1.1502   0.01418   0.01031  -0.0281  0.4887  0.7892
   9.880   1.1601   0.01388   0.01005  -0.0295  0.4952  0.7891
   9.890   1.1697   0.01359   0.00979  -0.0310  0.4999  0.7891
   9.900   1.1663   0.01375   0.00993  -0.0303  0.4973  0.7891
   9.910   1.1748   0.01351   0.00972  -0.0315  0.5025  0.7891
   9.920   1.1677   0.01378   0.00997  -0.0302  0.4972  0.7892
   9.930   1.1739   0.01361   0.00982  -0.0310  0.5004  0.7892
   9.940   1.1678   0.01385   0.01004  -0.0299  0.4965  0.7893
   9.950   1.1729   0.01372   0.00992  -0.0306  0.4986  0.7893
   9.960   1.1497   0.01456   0.01067  -0.0267  0.4838  0.7895
   9.970   1.1680   0.01397   0.01015  -0.0295  0.4955  0.7894
   9.980   1.1632   0.01417   0.01033  -0.0286  0.4914  0.7894
   9.990   1.1519   0.01460   0.01072  -0.0266  0.4836  0.7896
  10.000   1.1665   0.01413   0.01031  -0.0288  0.4926  0.7895
  10.010   1.1263   0.01561   0.01164  -0.0223  0.4667  0.7898
  10.020   1.1612   0.01440   0.01055  -0.0277  0.4878  0.7896
  10.030   1.1534   0.01471   0.01083  -0.0263  0.4824  0.7897
  10.040   1.1625   0.01443   0.01058  -0.0276  0.4876  0.7896
  10.050   1.1605   0.01454   0.01068  -0.0271  0.4860  0.7897
  10.060   1.1585   0.01465   0.01079  -0.0267  0.4843  0.7897
  10.070   1.1462   0.01513   0.01123  -0.0246  0.4764  0.7898
  10.080   1.1513   0.01499   0.01110  -0.0252  0.4786  0.7898
  10.090   1.1373   0.01554   0.01160  -0.0229  0.4694  0.7899
  10.100   1.1424   0.01540   0.01147  -0.0236  0.4723  0.7899
  10.110   1.1488   0.01521   0.01130  -0.0244  0.4761  0.7899
  10.120   1.1599   0.01485   0.01098  -0.0260  0.4819  0.7899
  10.130   1.1458   0.01540   0.01148  -0.0237  0.4730  0.7900
  10.140   1.1466   0.01542   0.01150  -0.0236  0.4730  0.7900
  10.150   1.1449   0.01552   0.01159  -0.0232  0.4712  0.7900
  10.160   1.1350   0.01593   0.01197  -0.0216  0.4653  0.7901
  10.170   1.1371   0.01590   0.01194  -0.0217  0.4659  0.7902
  10.180   1.1389   0.01587   0.01192  -0.0219  0.4664  0.7902
