  
       XFOIL         Version 6.94
  
 Calculated polar for: 1080                                            
  
 1 1 Reynolds number fixed          Mach number fixed         
  
 xtrf =   1.000 (top)        1.000 (bottom)  
 Mach =   0.000     Re =     2.000 e 6     Ncrit =   9.000
  
  alpha     CL        CD       CDp       CM    Top_Xtr Bot_Xtr
 ------- -------- --------- --------- -------- ------- -------
   6.000   1.3271   0.00936   0.00466  -0.0979  0.4325  0.7320
   6.010   1.3278   0.00937   0.00467  -0.0978  0.4324  0.7320
   6.020   1.3288   0.00937   0.00467  -0.0978  0.4324  0.7321
   6.030   1.3293   0.00939   0.00468  -0.0978  0.4322  0.7321
   6.040   1.3303   0.00939   0.00469  -0.0978  0.4322  0.7322
   6.050   1.3309   0.00940   0.00470  -0.0977  0.4320  0.7322
   6.060   1.3315   0.00941   0.00471  -0.0976  0.4318  0.7323
   6.070   1.3326   0.00942   0.00471  -0.0976  0.4319  0.7323
   6.080   1.3331   0.00943   0.00472  -0.0976  0.4317  0.7324
   6.090   1.3340   0.00944   0.00473  -0.0975  0.4316  0.7324
   6.100   1.3347   0.00944   0.00474  -0.0975  0.4315  0.7324
   6.110   1.3357   0.00945   0.00474  -0.0975  0.4315  0.7325
   6.120   1.3366   0.00945   0.00475  -0.0975  0.4314  0.7325
   6.130   1.3377   0.00946   0.00475  -0.0975  0.4313  0.7326
   6.140   1.3388   0.00946   0.00475  -0.0975  0.4313  0.7326
   6.150   1.3397   0.00946   0.00476  -0.0975  0.4313  0.7326
   6.160   1.3406   0.00947   0.00476  -0.0975  0.4312  0.7327
   6.170   1.3417   0.00947   0.00477  -0.0975  0.4311  0.7327
   6.180   1.3427   0.00947   0.00477  -0.0975  0.4311  0.7328
   6.190   1.3438   0.00948   0.00477  -0.0976  0.4310  0.7328
   6.200   1.3448   0.00948   0.00478  -0.0976  0.4309  0.7329
   6.210   1.3457   0.00948   0.00478  -0.0976  0.4309  0.7329
   6.220   1.3467   0.00949   0.00479  -0.0976  0.4308  0.7329
   6.230   1.3477   0.00949   0.00479  -0.0976  0.4308  0.7330
   6.240   1.3487   0.00949   0.00480  -0.0976  0.4307  0.7330
   6.250   1.3496   0.00950   0.00480  -0.0976  0.4306  0.7330
   6.260   1.3507   0.00950   0.00480  -0.0976  0.4306  0.7331
   6.270   1.3516   0.00950   0.00481  -0.0976  0.4305  0.7331
   6.280   1.3526   0.00951   0.00481  -0.0976  0.4305  0.7331
   6.290   1.3536   0.00951   0.00482  -0.0976  0.4303  0.7332
   6.300   1.3546   0.00952   0.00482  -0.0976  0.4303  0.7332
   6.310   1.3556   0.00952   0.00483  -0.0976  0.4302  0.7333
   6.320   1.3566   0.00953   0.00483  -0.0976  0.4302  0.7333
   6.330   1.3575   0.00953   0.00484  -0.0976  0.4301  0.7333
   6.340   1.3585   0.00953   0.00484  -0.0976  0.4300  0.7334
   6.350   1.3595   0.00954   0.00485  -0.0976  0.4299  0.7334
   6.360   1.3604   0.00954   0.00485  -0.0976  0.4299  0.7334
   6.370   1.3614   0.00955   0.00486  -0.0976  0.4298  0.7335
   6.380   1.3623   0.00955   0.00486  -0.0976  0.4297  0.7335
   6.390   1.3633   0.00955   0.00486  -0.0976  0.4296  0.7336
   6.400   1.3643   0.00956   0.00487  -0.0976  0.4296  0.7336
   6.410   1.3653   0.00956   0.00487  -0.0976  0.4295  0.7336
   6.420   1.3662   0.00957   0.00488  -0.0976  0.4295  0.7337
   6.430   1.3672   0.00957   0.00488  -0.0976  0.4294  0.7337
   6.440   1.3682   0.00958   0.00489  -0.0976  0.4293  0.7337
   6.450   1.3691   0.00958   0.00489  -0.0976  0.4292  0.7338
   6.460   1.3701   0.00959   0.00490  -0.0976  0.4291  0.7338
   6.470   1.3710   0.00959   0.00490  -0.0976  0.4289  0.7338
   6.480   1.3720   0.00959   0.00491  -0.0976  0.4289  0.7339
   6.490   1.3729   0.00960   0.00491  -0.0976  0.4289  0.7339
   6.500   1.3739   0.00960   0.00492  -0.0976  0.4288  0.7339
   6.510   1.3749   0.00961   0.00492  -0.0976  0.4286  0.7340
   6.520   1.3758   0.00961   0.00493  -0.0976  0.4286  0.7340
   6.530   1.3767   0.00962   0.00494  -0.0976  0.4286  0.7340
   6.540   1.3777   0.00962   0.00494  -0.0976  0.4284  0.7341
   6.550   1.3786   0.00963   0.00494  -0.0976  0.4283  0.7341
   6.560   1.3795   0.00964   0.00495  -0.0975  0.4283  0.7341
   6.570   1.3805   0.00964   0.00496  -0.0975  0.4281  0.7341
   6.580   1.3814   0.00965   0.00496  -0.0975  0.4281  0.7342
