  
       XFOIL         Version 6.94
  
 Calculated polar for: 1080                                            
  
 1 1 Reynolds number fixed          Mach number fixed         
  
 xtrf =   1.000 (top)        1.000 (bottom)  
 Mach =   0.000     Re =     2.000 e 6     Ncrit =   9.000
  
  alpha     CL        CD       CDp       CM    Top_Xtr Bot_Xtr
 ------- -------- --------- --------- -------- ------- -------
   6.000   0.9333   0.01116   0.00661  -0.0357  0.4611  0.7456
   6.010   0.9341   0.01116   0.00662  -0.0356  0.4611  0.7438
   6.020   0.9351   0.01117   0.00663  -0.0357  0.4610  0.7453
   6.030   0.9361   0.01117   0.00663  -0.0357  0.4607  0.7426
   6.040   0.9371   0.01118   0.00662  -0.0357  0.4607  0.7400
   6.050   0.9383   0.01119   0.00662  -0.0358  0.4606  0.7375
   6.060   0.9387   0.01119   0.00664  -0.0356  0.4605  0.7415
   6.070   0.9397   0.01120   0.00666  -0.0356  0.4604  0.7448
   6.080   0.9405   0.01121   0.00666  -0.0356  0.4602  0.7433
   6.100   0.9425   0.01122   0.00667  -0.0356  0.4602  0.7406
   6.110   0.9432   0.01123   0.00669  -0.0356  0.4600  0.7435
   6.120   0.9441   0.01125   0.00670  -0.0356  0.4598  0.7454
   6.130   0.9450   0.01125   0.00670  -0.0356  0.4597  0.7418
   6.140   0.9457   0.01126   0.00672  -0.0355  0.4594  0.7439
   6.150   0.9468   0.01126   0.00672  -0.0356  0.4596  0.7437
   6.160   0.9473   0.01128   0.00676  -0.0354  0.4594  0.7495
   6.170   0.9484   0.01129   0.00675  -0.0355  0.4593  0.7468
   6.180   0.9492   0.01130   0.00676  -0.0355  0.4592  0.7476
   6.190   0.9501   0.01131   0.00676  -0.0355  0.4591  0.7455
   6.200   0.9510   0.01132   0.00677  -0.0355  0.4590  0.7454
   6.210   0.9518   0.01132   0.00678  -0.0354  0.4589  0.7437
   6.220   0.9527   0.01133   0.00679  -0.0354  0.4588  0.7452
   6.230   0.9534   0.01134   0.00680  -0.0354  0.4587  0.7444
   6.240   0.9544   0.01134   0.00680  -0.0354  0.4585  0.7417
   6.250   0.9549   0.01138   0.00687  -0.0353  0.4584  0.7550
   6.270   0.9565   0.01138   0.00686  -0.0353  0.4582  0.7493
   6.280   0.9573   0.01139   0.00688  -0.0352  0.4581  0.7510
   6.290   0.9586   0.01139   0.00685  -0.0353  0.4582  0.7452
   6.300   0.9592   0.01141   0.00687  -0.0353  0.4578  0.7472
   6.310   0.9603   0.01142   0.00687  -0.0353  0.4578  0.7459
   6.320   0.9608   0.01142   0.00689  -0.0352  0.4577  0.7483
   6.330   0.9614   0.01144   0.00691  -0.0351  0.4575  0.7490
   6.340   0.9624   0.01145   0.00691  -0.0352  0.4573  0.7471
   6.350   0.9631   0.01146   0.00692  -0.0351  0.4571  0.7472
   6.360   0.9639   0.01147   0.00693  -0.0351  0.4572  0.7482
   6.370   0.9646   0.01150   0.00699  -0.0350  0.4571  0.7571
   6.380   0.9656   0.01149   0.00695  -0.0350  0.4570  0.7485
   6.390   0.9665   0.01150   0.00696  -0.0351  0.4569  0.7466
   6.400   0.9669   0.01153   0.00702  -0.0349  0.4566  0.7573
   6.410   0.9682   0.01152   0.00697  -0.0350  0.4567  0.7466
   6.420   0.9682   0.01156   0.00705  -0.0348  0.4562  0.7574
   6.430   0.9693   0.01154   0.00701  -0.0349  0.4562  0.7488
   6.440   0.9699   0.01157   0.00705  -0.0348  0.4560  0.7545
   6.450   0.9705   0.01159   0.00708  -0.0347  0.4559  0.7572
   6.460   0.9715   0.01160   0.00709  -0.0347  0.4560  0.7577
   6.470   0.9723   0.01161   0.00709  -0.0347  0.4558  0.7565
   6.480   0.9729   0.01162   0.00711  -0.0347  0.4556  0.7578
   6.490   0.9740   0.01162   0.00712  -0.0347  0.4558  0.7579
   6.500   0.9743   0.01163   0.00710  -0.0346  0.4551  0.7512
   6.510   0.9752   0.01166   0.00714  -0.0346  0.4553  0.7580
   6.520   0.9761   0.01165   0.00710  -0.0346  0.4550  0.7476
   6.530   0.9765   0.01169   0.00717  -0.0345  0.4549  0.7578
   6.540   0.9775   0.01169   0.00718  -0.0345  0.4550  0.7580
   6.550   0.9785   0.01169   0.00718  -0.0345  0.4552  0.7579
   6.560   0.9789   0.01171   0.00720  -0.0344  0.4547  0.7582
   6.570   0.9796   0.01173   0.00721  -0.0344  0.4546  0.7583
   6.590   0.9808   0.01176   0.00724  -0.0342  0.4542  0.7584
   6.600   0.9822   0.01175   0.00724  -0.0343  0.4545  0.7585
   6.610   0.9827   0.01177   0.00726  -0.0342  0.4542  0.7586
   6.620   0.9836   0.01178   0.00727  -0.0342  0.4542  0.7586
   6.630   0.9841   0.01180   0.00728  -0.0342  0.4540  0.7587
   6.640   0.9845   0.01182   0.00730  -0.0341  0.4536  0.7587
   6.650   0.9855   0.01183   0.00731  -0.0341  0.4537  0.7588
   6.660   0.9862   0.01184   0.00732  -0.0340  0.4536  0.7588
   6.670   0.9875   0.01183   0.00727  -0.0342  0.4536  0.7487
   6.680   0.9874   0.01187   0.00734  -0.0339  0.4531  0.7576
   6.690   0.9881   0.01188   0.00736  -0.0339  0.4530  0.7590
   6.700   0.9891   0.01189   0.00737  -0.0339  0.4531  0.7591
   6.710   0.9897   0.01190   0.00738  -0.0338  0.4529  0.7591
   6.720   0.9905   0.01191   0.00739  -0.0338  0.4527  0.7592
   6.740   0.9923   0.01193   0.00741  -0.0338  0.4527  0.7587
   6.750   0.9934   0.01193   0.00742  -0.0338  0.4525  0.7593
   6.760   0.9942   0.01194   0.00743  -0.0338  0.4524  0.7594
   6.770   0.9951   0.01195   0.00743  -0.0338  0.4526  0.7587
   6.780   0.9961   0.01195   0.00744  -0.0338  0.4521  0.7595
   6.790   0.9971   0.01196   0.00745  -0.0338  0.4521  0.7596
   6.800   0.9980   0.01196   0.00745  -0.0338  0.4521  0.7596
   6.810   0.9989   0.01197   0.00746  -0.0338  0.4520  0.7596
   6.820   0.9999   0.01198   0.00747  -0.0338  0.4517  0.7597
   6.830   1.0009   0.01198   0.00746  -0.0338  0.4517  0.7585
   6.840   1.0018   0.01199   0.00748  -0.0338  0.4516  0.7598
   6.850   1.0029   0.01198   0.00744  -0.0339  0.4515  0.7515
   6.860   1.0037   0.01200   0.00750  -0.0338  0.4512  0.7599
   6.870   1.0045   0.01201   0.00751  -0.0338  0.4513  0.7600
   6.880   1.0054   0.01202   0.00751  -0.0338  0.4509  0.7600
   6.890   1.0063   0.01203   0.00752  -0.0338  0.4509  0.7601
   6.900   1.0072   0.01203   0.00753  -0.0338  0.4510  0.7601
   6.910   1.0081   0.01204   0.00754  -0.0338  0.4508  0.7602
   6.920   1.0090   0.01205   0.00755  -0.0338  0.4508  0.7603
   6.930   1.0099   0.01206   0.00756  -0.0338  0.4505  0.7603
   6.940   1.0106   0.01207   0.00757  -0.0338  0.4505  0.7604
   6.950   1.0116   0.01208   0.00758  -0.0338  0.4504  0.7604
   6.960   1.0125   0.01208   0.00759  -0.0337  0.4501  0.7605
   6.970   1.0133   0.01209   0.00760  -0.0337  0.4501  0.7605
   6.980   1.0142   0.01210   0.00761  -0.0337  0.4500  0.7606
   6.990   1.0149   0.01211   0.00762  -0.0337  0.4496  0.7607
   7.000   1.0159   0.01212   0.00763  -0.0337  0.4498  0.7607
   7.010   1.0167   0.01213   0.00764  -0.0337  0.4495  0.7607
   7.020   1.0176   0.01214   0.00765  -0.0337  0.4494  0.7608
   7.030   1.0184   0.01215   0.00766  -0.0337  0.4493  0.7609
   7.040   1.0191   0.01216   0.00767  -0.0336  0.4489  0.7609
   7.050   1.0199   0.01217   0.00768  -0.0336  0.4487  0.7610
   7.060   1.0208   0.01218   0.00769  -0.0336  0.4489  0.7610
   7.070   1.0216   0.01219   0.00770  -0.0336  0.4485  0.7611
   7.080   1.0225   0.01220   0.00771  -0.0336  0.4486  0.7611
   7.090   1.0233   0.01221   0.00772  -0.0335  0.4486  0.7612
   7.100   1.0240   0.01222   0.00774  -0.0335  0.4483  0.7612
   7.110   1.0248   0.01224   0.00775  -0.0335  0.4479  0.7613
   7.120   1.0257   0.01225   0.00776  -0.0335  0.4480  0.7614
   7.130   1.0249   0.01231   0.00780  -0.0332  0.4457  0.7615
   7.140   1.0273   0.01227   0.00778  -0.0334  0.4478  0.7615
   7.150   1.0282   0.01228   0.00779  -0.0334  0.4478  0.7615
   7.160   1.0287   0.01229   0.00780  -0.0334  0.4473  0.7616
   7.170   1.0296   0.01230   0.00781  -0.0334  0.4473  0.7616
   7.180   1.0302   0.01232   0.00783  -0.0333  0.4470  0.7617
   7.190   1.0313   0.01232   0.00783  -0.0333  0.4472  0.7617
   7.200   1.0320   0.01234   0.00785  -0.0333  0.4469  0.7618
   7.210   1.0329   0.01234   0.00785  -0.0333  0.4469  0.7619
   7.220   1.0337   0.01235   0.00787  -0.0333  0.4468  0.7619
   7.230   1.0341   0.01238   0.00789  -0.0332  0.4463  0.7620
   7.240   1.0348   0.01239   0.00790  -0.0331  0.4461  0.7620
   7.250   1.0358   0.01240   0.00791  -0.0332  0.4462  0.7621
   7.260   1.0364   0.01241   0.00792  -0.0331  0.4459  0.7621
   7.270   1.0372   0.01242   0.00793  -0.0331  0.4459  0.7622
   7.280   1.0379   0.01244   0.00795  -0.0330  0.4457  0.7623
   7.290   1.0390   0.01244   0.00795  -0.0331  0.4460  0.7623
   7.300   1.0395   0.01246   0.00797  -0.0330  0.4455  0.7624
   7.310   1.0401   0.01248   0.00798  -0.0329  0.4452  0.7625
   7.320   1.0412   0.01248   0.00799  -0.0330  0.4454  0.7625
   7.330   1.0418   0.01250   0.00800  -0.0329  0.4452  0.7625
   7.340   1.0420   0.01252   0.00803  -0.0328  0.4446  0.7626
   7.360   1.0440   0.01254   0.00804  -0.0328  0.4448  0.7627
   7.370   1.0446   0.01256   0.00806  -0.0328  0.4445  0.7628
   7.380   1.0454   0.01257   0.00807  -0.0327  0.4445  0.7628
   7.390   1.0461   0.01258   0.00808  -0.0327  0.4443  0.7629
   7.400   1.0465   0.01260   0.00810  -0.0326  0.4440  0.7629
   7.410   1.0469   0.01263   0.00812  -0.0326  0.4437  0.7630
   7.420   1.0483   0.01262   0.00812  -0.0326  0.4440  0.7630
   7.430   1.0485   0.01265   0.00814  -0.0325  0.4435  0.7631
   7.440   1.0492   0.01266   0.00816  -0.0325  0.4434  0.7632
   7.450   1.0502   0.01267   0.00816  -0.0325  0.4435  0.7632
   7.460   1.0509   0.01268   0.00818  -0.0324  0.4433  0.7633
   7.470   1.0516   0.01270   0.00819  -0.0324  0.4432  0.7634
   7.480   1.0522   0.01271   0.00821  -0.0324  0.4430  0.7634
   7.490   1.0526   0.01274   0.00823  -0.0323  0.4426  0.7634
   7.500   1.0534   0.01275   0.00824  -0.0322  0.4426  0.7635
   7.510   1.0545   0.01275   0.00824  -0.0323  0.4425  0.7636
   7.520   1.0554   0.01276   0.00825  -0.0323  0.4424  0.7636
   7.530   1.0513   0.01293   0.00837  -0.0315  0.4331  0.7638
   7.540   1.0572   0.01277   0.00827  -0.0323  0.4421  0.7637
   7.550   1.0582   0.01278   0.00828  -0.0323  0.4420  0.7638
   7.560   1.0591   0.01279   0.00829  -0.0323  0.4421  0.7638
   7.570   1.0596   0.01281   0.00830  -0.0322  0.4386  0.7639
   7.580   1.0605   0.01282   0.00831  -0.0322  0.4385  0.7639
   7.590   1.0617   0.01282   0.00831  -0.0323  0.4395  0.7640
   7.600   1.0626   0.01282   0.00832  -0.0323  0.4414  0.7641
   7.610   1.0636   0.01283   0.00833  -0.0323  0.4412  0.7641
   7.620   1.0644   0.01284   0.00834  -0.0322  0.4411  0.7642
   7.630   1.0653   0.01285   0.00835  -0.0322  0.4411  0.7642
   7.640   1.0663   0.01285   0.00836  -0.0322  0.4408  0.7643
   7.650   1.0671   0.01286   0.00837  -0.0322  0.4407  0.7643
   7.660   1.0679   0.01288   0.00838  -0.0322  0.4400  0.7644
   7.670   1.0686   0.01289   0.00839  -0.0322  0.4391  0.7645
   7.680   1.0697   0.01289   0.00840  -0.0322  0.4403  0.7645
   7.690   1.0706   0.01290   0.00840  -0.0322  0.4400  0.7645
   7.700   1.0715   0.01291   0.00841  -0.0322  0.4401  0.7646
   7.710   1.0724   0.01292   0.00842  -0.0322  0.4400  0.7646
   7.720   1.0732   0.01293   0.00843  -0.0322  0.4398  0.7647
   7.730   1.0736   0.01296   0.00845  -0.0321  0.4383  0.7647
   7.740   1.0687   0.01315   0.00860  -0.0311  0.4314  0.7648
   7.750   1.0756   0.01296   0.00847  -0.0321  0.4393  0.7648
   7.760   1.0740   0.01306   0.00854  -0.0317  0.4354  0.7649
   7.770   1.0773   0.01298   0.00849  -0.0321  0.4390  0.7649
   7.780   1.0781   0.01300   0.00850  -0.0321  0.4386  0.7650
   7.790   1.0762   0.01310   0.00858  -0.0316  0.4351  0.7650
   7.800   1.0737   0.01322   0.00867  -0.0311  0.4306  0.7651
   7.810   1.0804   0.01304   0.00854  -0.0320  0.4380  0.7651
   7.820   1.0755   0.01323   0.00869  -0.0311  0.4315  0.7653
   7.830   1.0821   0.01306   0.00856  -0.0320  0.4380  0.7652
   7.840   1.0827   0.01307   0.00858  -0.0319  0.4377  0.7653
   7.850   1.0837   0.01308   0.00858  -0.0320  0.4377  0.7653
   7.860   1.0839   0.01311   0.00861  -0.0318  0.4369  0.7654
   7.870   1.0848   0.01312   0.00862  -0.0318  0.4369  0.7654
   7.880   1.0813   0.01327   0.00874  -0.0311  0.4330  0.7655
   7.890   1.0867   0.01313   0.00863  -0.0318  0.4371  0.7655
   7.900   1.0870   0.01316   0.00866  -0.0318  0.4365  0.7655
   7.910   1.0872   0.01319   0.00868  -0.0316  0.4357  0.7656
   7.920   1.0844   0.01332   0.00879  -0.0310  0.4329  0.7657
   7.930   1.0849   0.01334   0.00880  -0.0310  0.4307  0.7657
   7.940   1.0858   0.01335   0.00881  -0.0310  0.4307  0.7658
   7.950   1.0867   0.01336   0.00883  -0.0310  0.4324  0.7658
   7.960   1.0915   0.01324   0.00874  -0.0316  0.4357  0.7658
   7.970   1.0925   0.01325   0.00875  -0.0316  0.4358  0.7659
   7.980   1.0926   0.01328   0.00877  -0.0315  0.4351  0.7659
   7.990   1.0935   0.01329   0.00878  -0.0315  0.4352  0.7659
   8.020   1.0952   0.01334   0.00884  -0.0313  0.4345  0.7662
   8.030   1.0957   0.01336   0.00886  -0.0312  0.4342  0.7662
   8.040   1.0960   0.01339   0.00888  -0.0311  0.4338  0.7663
   8.050   1.0964   0.01341   0.00891  -0.0310  0.4335  0.7664
   8.060   1.0889   0.01370   0.00912  -0.0297  0.4193  0.7666
   8.070   1.0974   0.01345   0.00894  -0.0309  0.4330  0.7666
   8.080   1.0996   0.01342   0.00892  -0.0311  0.4338  0.7666
   8.090   1.1003   0.01343   0.00894  -0.0311  0.4338  0.7667
   8.100   1.0995   0.01350   0.00899  -0.0308  0.4322  0.7668
   8.110   1.1012   0.01348   0.00898  -0.0309  0.4332  0.7668
   8.120   1.1016   0.01350   0.00900  -0.0309  0.4329  0.7669
   8.130   1.1024   0.01351   0.00901  -0.0308  0.4329  0.7670
   8.140   1.1022   0.01355   0.00904  -0.0307  0.4287  0.7671
   8.150   1.1032   0.01356   0.00905  -0.0307  0.4287  0.7671
   8.160   1.0974   0.01380   0.00923  -0.0296  0.4188  0.7673
   8.170   1.0999   0.01375   0.00920  -0.0298  0.4230  0.7673
   8.180   1.1062   0.01357   0.00907  -0.0307  0.4299  0.7673
   8.190   1.1009   0.01379   0.00924  -0.0297  0.4220  0.7675
   8.200   1.1082   0.01358   0.00909  -0.0307  0.4313  0.7674
   8.210   1.1087   0.01360   0.00911  -0.0307  0.4301  0.7675
   8.220   1.1028   0.01384   0.00928  -0.0296  0.4195  0.7677
   8.230   1.1102   0.01363   0.00913  -0.0306  0.4291  0.7677
   8.240   1.1114   0.01362   0.00913  -0.0307  0.4309  0.7678
   8.250   1.1120   0.01365   0.00915  -0.0306  0.4293  0.7678
   8.260   1.1122   0.01368   0.00918  -0.0305  0.4277  0.7678
   8.270   1.1140   0.01365   0.00917  -0.0307  0.4304  0.7679
   8.280   1.1094   0.01385   0.00931  -0.0298  0.4231  0.7680
   8.290   1.1068   0.01397   0.00941  -0.0292  0.4162  0.7681
   8.300   1.1104   0.01389   0.00935  -0.0296  0.4223  0.7681
   8.310   1.1159   0.01374   0.00924  -0.0304  0.4269  0.7682
   8.320   1.1111   0.01394   0.00940  -0.0295  0.4186  0.7682
   8.330   1.1189   0.01372   0.00923  -0.0306  0.4292  0.7683
   8.340   1.1161   0.01385   0.00933  -0.0300  0.4243  0.7683
   8.350   1.1158   0.01390   0.00938  -0.0298  0.4234  0.7684
   8.360   1.1170   0.01390   0.00938  -0.0298  0.4236  0.7685
   8.370   1.1156   0.01398   0.00945  -0.0294  0.4192  0.7686
   8.380   1.1173   0.01396   0.00944  -0.0296  0.4224  0.7686
   8.390   1.1200   0.01391   0.00940  -0.0299  0.4239  0.7687
   8.400   1.1184   0.01400   0.00947  -0.0295  0.4198  0.7687
   8.410   1.1198   0.01399   0.00947  -0.0295  0.4224  0.7688
   8.420   1.1208   0.01400   0.00948  -0.0295  0.4222  0.7689
   8.430   1.1268   0.01383   0.00936  -0.0304  0.4277  0.7689
   8.440   1.1255   0.01392   0.00942  -0.0300  0.4250  0.7689
   8.450   1.1195   0.01416   0.00961  -0.0289  0.4156  0.7691
   8.460   1.1181   0.01425   0.00968  -0.0286  0.4137  0.7691
   8.470   1.1205   0.01420   0.00966  -0.0288  0.4149  0.7692
   8.480   1.1247   0.01410   0.00958  -0.0293  0.4190  0.7693
   8.490   1.1256   0.01411   0.00959  -0.0293  0.4191  0.7693
   8.500   1.1294   0.01401   0.00952  -0.0298  0.4241  0.7693
   8.510   1.1234   0.01426   0.00972  -0.0287  0.4145  0.7695
   8.520   1.1324   0.01399   0.00951  -0.0300  0.4251  0.7694
   8.530   1.1223   0.01438   0.00981  -0.0282  0.4112  0.7696
   8.540   1.1229   0.01440   0.00983  -0.0282  0.4104  0.7696
   8.550   1.1345   0.01404   0.00956  -0.0299  0.4247  0.7696
   8.560   1.1315   0.01418   0.00967  -0.0292  0.4191  0.7697
   8.570   1.1315   0.01422   0.00971  -0.0291  0.4177  0.7697
   8.580   1.1340   0.01417   0.00967  -0.0294  0.4222  0.7698
   8.590   1.1364   0.01413   0.00965  -0.0296  0.4237  0.7699
   8.600   1.1268   0.01450   0.00993  -0.0279  0.4084  0.7700
   8.610   1.1319   0.01436   0.00983  -0.0286  0.4146  0.7700
   8.620   1.1296   0.01448   0.00993  -0.0281  0.4105  0.7701
   8.630   1.1382   0.01422   0.00973  -0.0293  0.4219  0.7701
   8.640   1.1390   0.01424   0.00974  -0.0293  0.4212  0.7701
   8.660   1.1337   0.01450   0.00996  -0.0282  0.4125  0.7703
   8.670   1.1344   0.01452   0.00997  -0.0281  0.4118  0.7704
   8.680   1.1383   0.01442   0.00990  -0.0286  0.4150  0.7704
   8.690   1.1365   0.01452   0.00998  -0.0282  0.4130  0.7705
   8.700   1.1370   0.01454   0.01001  -0.0281  0.4122  0.7706
   8.710   1.1373   0.01457   0.01003  -0.0280  0.4105  0.7706
   8.720   1.1374   0.01461   0.01006  -0.0279  0.4091  0.7707
   8.730   1.1461   0.01435   0.00986  -0.0291  0.4199  0.7707
   8.740   1.1392   0.01463   0.01008  -0.0279  0.4091  0.7708
   8.750   1.1411   0.01460   0.01007  -0.0281  0.4114  0.7709
   8.760   1.1459   0.01447   0.00997  -0.0287  0.4158  0.7709
   8.770   1.1495   0.01439   0.00991  -0.0291  0.4202  0.7709
   8.780   1.1456   0.01456   0.01005  -0.0283  0.4141  0.7710
   8.790   1.1448   0.01463   0.01011  -0.0281  0.4127  0.7711
   8.800   1.1497   0.01450   0.01001  -0.0287  0.4162  0.7711
   8.810   1.1448   0.01471   0.01017  -0.0278  0.4085  0.7712
   8.820   1.1527   0.01447   0.00999  -0.0289  0.4181  0.7712
   8.830   1.1539   0.01447   0.01000  -0.0289  0.4185  0.7712
   8.840   1.1548   0.01448   0.01001  -0.0290  0.4187  0.7713
   8.850   1.1441   0.01490   0.01033  -0.0271  0.4040  0.7715
   8.860   1.1463   0.01486   0.01031  -0.0273  0.4052  0.7715
   8.870   1.1488   0.01482   0.01028  -0.0276  0.4067  0.7716
   8.880   1.1517   0.01475   0.01023  -0.0279  0.4103  0.7716
   8.890   1.1560   0.01464   0.01015  -0.0284  0.4148  0.7717
   8.900   1.1551   0.01471   0.01021  -0.0282  0.4135  0.7717
   8.910   1.1544   0.01478   0.01026  -0.0279  0.4107  0.7718
   8.920   1.1488   0.01502   0.01045  -0.0269  0.4029  0.7719
   8.930   1.1527   0.01492   0.01038  -0.0274  0.4055  0.7719
   8.940   1.1549   0.01489   0.01035  -0.0275  0.4069  0.7720
   8.950   1.1556   0.01490   0.01037  -0.0275  0.4068  0.7720
   8.960   1.1566   0.01491   0.01038  -0.0275  0.4069  0.7721
   8.970   1.1584   0.01488   0.01036  -0.0277  0.4082  0.7721
   8.980   1.1642   0.01472   0.01024  -0.0285  0.4153  0.7721
   8.990   1.1549   0.01509   0.01053  -0.0268  0.4030  0.7723
   9.000   1.1523   0.01523   0.01064  -0.0263  0.3972  0.7724
   9.010   1.1558   0.01514   0.01058  -0.0267  0.4012  0.7724
   9.020   1.1625   0.01494   0.01042  -0.0276  0.4081  0.7724
   9.030   1.1560   0.01521   0.01064  -0.0265  0.3989  0.7726
   9.040   1.1525   0.01539   0.01078  -0.0258  0.3943  0.7726
   9.050   1.1570   0.01527   0.01069  -0.0264  0.3978  0.7727
   9.060   1.1591   0.01523   0.01066  -0.0265  0.3997  0.7727
   9.070   1.1577   0.01532   0.01074  -0.0262  0.3967  0.7728
   9.080   1.1581   0.01535   0.01077  -0.0261  0.3963  0.7728
   9.090   1.1608   0.01530   0.01072  -0.0264  0.3984  0.7729
   9.100   1.1592   0.01540   0.01081  -0.0260  0.3957  0.7730
   9.110   1.1576   0.01550   0.01090  -0.0256  0.3938  0.7731
   9.120   1.1642   0.01530   0.01074  -0.0265  0.3998  0.7731
   9.130   1.1564   0.01563   0.01100  -0.0252  0.3894  0.7732
   9.140   1.1650   0.01535   0.01079  -0.0264  0.3986  0.7732
   9.150   1.1681   0.01528   0.01074  -0.0267  0.4029  0.7732
   9.160   1.1698   0.01526   0.01072  -0.0268  0.4037  0.7732
   9.170   1.1658   0.01545   0.01088  -0.0261  0.3966  0.7734
   9.180   1.1669   0.01545   0.01088  -0.0261  0.3969  0.7734
   9.190   1.1698   0.01539   0.01084  -0.0264  0.3996  0.7735
   9.200   1.1734   0.01529   0.01077  -0.0268  0.4038  0.7735
   9.210   1.1632   0.01571   0.01110  -0.0251  0.3897  0.7736
   9.220   1.1720   0.01543   0.01088  -0.0263  0.3990  0.7736
   9.230   1.1726   0.01545   0.01090  -0.0263  0.3989  0.7737
