  
       XFOIL         Version 6.94
  
 Calculated polar for: 1080                                            
  
 1 1 Reynolds number fixed          Mach number fixed         
  
 xtrf =   1.000 (top)        1.000 (bottom)  
 Mach =   0.000     Re =     2.000 e 6     Ncrit =   9.000
  
  alpha     CL        CD       CDp       CM    Top_Xtr Bot_Xtr
 ------- -------- --------- --------- -------- ------- -------
   6.000   1.1088   0.00760   0.00414  -0.1062  0.6519  0.8239
   6.010   1.1098   0.00760   0.00414  -0.1062  0.6518  0.8239
   6.020   1.1105   0.00759   0.00414  -0.1061  0.6516  0.8239
   6.030   1.1117   0.00760   0.00414  -0.1062  0.6517  0.8239
   6.040   1.1124   0.00759   0.00414  -0.1061  0.6515  0.8239
   6.050   1.1137   0.00760   0.00414  -0.1062  0.6516  0.8239
   6.060   1.1146   0.00760   0.00414  -0.1062  0.6514  0.8239
   6.070   1.1157   0.00760   0.00414  -0.1062  0.6515  0.8239
   6.080   1.1169   0.00759   0.00413  -0.1062  0.6511  0.8239
   6.090   1.1180   0.00760   0.00415  -0.1062  0.6515  0.8240
   6.100   1.1190   0.00760   0.00414  -0.1062  0.6512  0.8240
   6.110   1.1201   0.00760   0.00414  -0.1063  0.6512  0.8240
   6.120   1.1211   0.00760   0.00415  -0.1063  0.6512  0.8240
   6.130   1.1224   0.00760   0.00414  -0.1063  0.6509  0.8240
   6.140   1.1234   0.00760   0.00415  -0.1063  0.6511  0.8240
   6.150   1.1247   0.00760   0.00414  -0.1064  0.6509  0.8240
   6.160   1.1258   0.00760   0.00415  -0.1064  0.6509  0.8240
   6.170   1.1269   0.00761   0.00415  -0.1064  0.6509  0.8240
   6.180   1.1292   0.00761   0.00414  -0.1067  0.6504  0.8240
   6.190   1.1296   0.00761   0.00415  -0.1066  0.6507  0.8240
   6.200   1.1321   0.00761   0.00414  -0.1069  0.6502  0.8240
   6.210   1.1333   0.00761   0.00414  -0.1070  0.6502  0.8240
   6.220   1.1324   0.00761   0.00415  -0.1066  0.6501  0.8241
   6.230   1.1355   0.00762   0.00415  -0.1070  0.6503  0.8240
   6.240   1.1351   0.00762   0.00415  -0.1067  0.6501  0.8241
   6.250   1.1365   0.00762   0.00416  -0.1068  0.6501  0.8241
   6.260   1.1373   0.00762   0.00416  -0.1068  0.6501  0.8241
   6.270   1.1357   0.00762   0.00417  -0.1062  0.6500  0.8241
   6.280   1.1348   0.00762   0.00417  -0.1058  0.6499  0.8242
   6.290   1.1375   0.00763   0.00417  -0.1062  0.6500  0.8242
   6.300   1.1382   0.00763   0.00418  -0.1061  0.6499  0.8242
   6.310   1.1404   0.00763   0.00418  -0.1064  0.6500  0.8242
   6.320   1.1342   0.00763   0.00419  -0.1048  0.6495  0.8243
   6.330   1.1370   0.00764   0.00420  -0.1052  0.6496  0.8243
   6.340   1.1393   0.00764   0.00420  -0.1055  0.6497  0.8243
   6.350   1.1400   0.00764   0.00420  -0.1054  0.6497  0.8243
   6.360   1.1387   0.00764   0.00421  -0.1050  0.6495  0.8243
   6.370   1.1405   0.00765   0.00421  -0.1051  0.6496  0.8243
   6.380   1.1404   0.00765   0.00422  -0.1049  0.6495  0.8244
   6.390   1.1410   0.00765   0.00422  -0.1048  0.6494  0.8244
   6.400   1.1406   0.00766   0.00423  -0.1045  0.6493  0.8244
   6.410   1.1430   0.00766   0.00423  -0.1048  0.6494  0.8244
   6.420   1.1403   0.00766   0.00424  -0.1040  0.6491  0.8245
   6.430   1.1433   0.00766   0.00424  -0.1045  0.6493  0.8244
   6.440   1.1428   0.00767   0.00425  -0.1041  0.6491  0.8245
   6.450   1.1425   0.00767   0.00425  -0.1039  0.6490  0.8245
   6.460   1.1427   0.00767   0.00426  -0.1037  0.6489  0.8245
   6.470   1.1425   0.00768   0.00426  -0.1035  0.6488  0.8245
   6.480   1.1431   0.00768   0.00427  -0.1034  0.6487  0.8246
   6.490   1.1449   0.00768   0.00427  -0.1035  0.6488  0.8246
   6.500   1.1450   0.00768   0.00428  -0.1034  0.6487  0.8246
   6.510   1.1437   0.00769   0.00428  -0.1029  0.6485  0.8246
   6.520   1.1458   0.00769   0.00429  -0.1031  0.6486  0.8246
   6.530   1.1465   0.00769   0.00429  -0.1031  0.6485  0.8246
   6.540   1.1476   0.00770   0.00429  -0.1031  0.6485  0.8246
   6.550   1.1462   0.00770   0.00430  -0.1026  0.6483  0.8247
   6.560   1.1449   0.00771   0.00431  -0.1021  0.6479  0.8247
   6.570   1.1472   0.00771   0.00431  -0.1024  0.6481  0.8247
   6.580   1.1485   0.00771   0.00432  -0.1024  0.6482  0.8247
   6.590   1.1491   0.00771   0.00432  -0.1024  0.6481  0.8247
   6.600   1.1483   0.00772   0.00433  -0.1020  0.6479  0.8248
   6.610   1.1494   0.00772   0.00433  -0.1020  0.6479  0.8248
   6.620   1.1503   0.00772   0.00434  -0.1020  0.6478  0.8248
   6.630   1.1513   0.00773   0.00434  -0.1020  0.6478  0.8248
   6.640   1.1504   0.00773   0.00435  -0.1016  0.6476  0.8248
   6.650   1.1510   0.00773   0.00435  -0.1015  0.6475  0.8248
   6.660   1.1517   0.00774   0.00436  -0.1015  0.6474  0.8249
   6.670   1.1526   0.00774   0.00436  -0.1014  0.6474  0.8249
   6.680   1.1520   0.00774   0.00437  -0.1011  0.6472  0.8249
   6.690   1.1544   0.00775   0.00437  -0.1014  0.6474  0.8249
   6.700   1.1535   0.00775   0.00437  -0.1010  0.6471  0.8249
   6.710   1.1540   0.00775   0.00438  -0.1009  0.6470  0.8249
   6.720   1.1555   0.00775   0.00438  -0.1010  0.6471  0.8249
   6.730   1.1564   0.00776   0.00439  -0.1010  0.6470  0.8249
   6.740   1.1569   0.00776   0.00439  -0.1009  0.6469  0.8250
   6.750   1.1571   0.00776   0.00440  -0.1007  0.6468  0.8250
   6.760   1.1567   0.00777   0.00440  -0.1004  0.6466  0.8250
   6.770   1.1551   0.00777   0.00440  -0.0999  0.6461  0.8251
   6.780   1.1586   0.00777   0.00441  -0.1004  0.6465  0.8250
   6.790   1.1591   0.00778   0.00441  -0.1003  0.6464  0.8251
   6.800   1.1602   0.00778   0.00442  -0.1004  0.6464  0.8251
   6.810   1.1596   0.00778   0.00442  -0.1000  0.6461  0.8251
   6.820   1.1608   0.00779   0.00443  -0.1001  0.6462  0.8251
   6.830   1.1604   0.00779   0.00443  -0.0998  0.6459  0.8251
   6.840   1.1621   0.00779   0.00444  -0.0999  0.6460  0.8251
   6.850   1.1626   0.00780   0.00444  -0.0998  0.6459  0.8251
   6.860   1.1629   0.00780   0.00444  -0.0997  0.6458  0.8252
   6.870   1.1636   0.00780   0.00445  -0.0996  0.6457  0.8252
   6.880   1.1638   0.00780   0.00445  -0.0995  0.6456  0.8252
   6.890   1.1629   0.00781   0.00446  -0.0991  0.6452  0.8252
   6.900   1.1644   0.00781   0.00446  -0.0992  0.6453  0.8252
   6.910   1.1661   0.00781   0.00447  -0.0993  0.6454  0.8252
   6.920   1.1668   0.00782   0.00447  -0.0993  0.6453  0.8252
   6.930   1.1677   0.00782   0.00447  -0.0992  0.6453  0.8252
   6.940   1.1681   0.00782   0.00448  -0.0991  0.6452  0.8253
   6.950   1.1676   0.00783   0.00448  -0.0988  0.6449  0.8253
   6.960   1.1687   0.00783   0.00449  -0.0989  0.6449  0.8253
   6.970   1.1689   0.00783   0.00449  -0.0987  0.6447  0.8253
   6.980   1.1702   0.00784   0.00449  -0.0988  0.6448  0.8253
   6.990   1.1704   0.00784   0.00450  -0.0986  0.6446  0.8253
   7.000   1.1715   0.00784   0.00450  -0.0986  0.6446  0.8253
   7.010   1.1708   0.00785   0.00451  -0.0983  0.6443  0.8254
   7.020   1.1726   0.00785   0.00451  -0.0984  0.6444  0.8254
   7.030   1.1731   0.00785   0.00451  -0.0983  0.6443  0.8254
   7.040   1.1736   0.00786   0.00452  -0.0982  0.6442  0.8254
   7.050   1.1742   0.00786   0.00452  -0.0982  0.6441  0.8254
   7.060   1.1744   0.00786   0.00453  -0.0980  0.6440  0.8254
   7.070   1.1750   0.00787   0.00453  -0.0979  0.6439  0.8254
   7.080   1.1756   0.00787   0.00454  -0.0978  0.6438  0.8255
   7.090   1.1775   0.00787   0.00454  -0.0980  0.6440  0.8255
   7.100   1.1773   0.00788   0.00455  -0.0978  0.6438  0.8255
   7.110   1.1775   0.00788   0.00455  -0.0976  0.6436  0.8255
   7.120   1.1778   0.00789   0.00456  -0.0975  0.6435  0.8255
   7.130   1.1789   0.00789   0.00456  -0.0975  0.6435  0.8255
   7.140   1.1789   0.00790   0.00457  -0.0973  0.6433  0.8255
   7.150   1.1797   0.00790   0.00457  -0.0973  0.6433  0.8256
   7.160   1.1808   0.00790   0.00458  -0.0973  0.6433  0.8256
   7.170   1.1811   0.00791   0.00458  -0.0972  0.6431  0.8256
   7.180   1.1816   0.00791   0.00458  -0.0971  0.6430  0.8256
   7.190   1.1820   0.00791   0.00459  -0.0969  0.6428  0.8256
   7.200   1.1837   0.00792   0.00459  -0.0971  0.6430  0.8256
   7.210   1.1841   0.00792   0.00460  -0.0970  0.6428  0.8256
   7.220   1.1849   0.00792   0.00460  -0.0969  0.6427  0.8256
   7.230   1.1856   0.00793   0.00460  -0.0969  0.6426  0.8257
   7.240   1.1858   0.00793   0.00460  -0.0967  0.6423  0.8257
   7.250   1.1874   0.00793   0.00461  -0.0968  0.6425  0.8257
   7.260   1.1877   0.00794   0.00461  -0.0967  0.6423  0.8257
   7.270   1.1884   0.00794   0.00461  -0.0966  0.6421  0.8257
   7.280   1.1889   0.00794   0.00461  -0.0965  0.6419  0.8257
   7.290   1.1902   0.00795   0.00462  -0.0966  0.6420  0.8257
   7.300   1.1908   0.00795   0.00462  -0.0965  0.6418  0.8257
   7.310   1.1915   0.00795   0.00462  -0.0965  0.6416  0.8258
   7.320   1.1925   0.00795   0.00462  -0.0965  0.6415  0.8258
   7.330   1.1936   0.00796   0.00463  -0.0965  0.6416  0.8258
   7.340   1.1945   0.00796   0.00463  -0.0965  0.6413  0.8258
   7.350   1.1954   0.00796   0.00463  -0.0965  0.6412  0.8258
   7.360   1.1952   0.00797   0.00464  -0.0962  0.6409  0.8258
   7.370   1.1975   0.00797   0.00463  -0.0965  0.6412  0.8258
   7.380   1.1961   0.00799   0.00466  -0.0960  0.6408  0.8258
   7.390   1.1981   0.00798   0.00465  -0.0962  0.6409  0.8258
   7.400   1.1980   0.00800   0.00467  -0.0960  0.6407  0.8259
   7.410   1.1990   0.00800   0.00467  -0.0960  0.6408  0.8259
   7.420   1.1988   0.00801   0.00469  -0.0958  0.6406  0.8259
   7.430   1.1976   0.00803   0.00472  -0.0954  0.6404  0.8259
   7.440   1.1973   0.00805   0.00473  -0.0951  0.6402  0.8260
   7.450   1.2005   0.00803   0.00472  -0.0955  0.6405  0.8259
   7.460   1.2011   0.00804   0.00473  -0.0955  0.6404  0.8260
   7.470   1.1992   0.00807   0.00476  -0.0949  0.6401  0.8260
   7.480   1.2004   0.00807   0.00476  -0.0949  0.6401  0.8260
   7.490   1.2000   0.00808   0.00478  -0.0947  0.6399  0.8260
   7.500   1.1992   0.00810   0.00480  -0.0943  0.6396  0.8261
   7.510   1.2015   0.00810   0.00480  -0.0946  0.6398  0.8261
   7.520   1.2004   0.00812   0.00482  -0.0942  0.6395  0.8261
   7.530   1.2022   0.00811   0.00482  -0.0943  0.6396  0.8261
   7.540   1.2001   0.00814   0.00486  -0.0937  0.6391  0.8261
   7.550   1.2023   0.00814   0.00485  -0.0940  0.6393  0.8261
   7.560   1.2031   0.00814   0.00486  -0.0939  0.6393  0.8261
   7.570   1.2018   0.00817   0.00488  -0.0935  0.6389  0.8262
   7.580   1.2032   0.00817   0.00489  -0.0936  0.6389  0.8262
   7.590   1.2030   0.00818   0.00490  -0.0933  0.6387  0.8262
   7.600   1.2033   0.00819   0.00492  -0.0932  0.6386  0.8262
   7.610   1.2040   0.00820   0.00492  -0.0931  0.6385  0.8262
   7.620   1.2030   0.00822   0.00495  -0.0928  0.6381  0.8263
   7.630   1.2058   0.00821   0.00494  -0.0931  0.6385  0.8262
   7.640   1.2058   0.00822   0.00495  -0.0929  0.6383  0.8263
   7.650   1.2048   0.00824   0.00498  -0.0925  0.6378  0.8263
   7.660   1.2055   0.00825   0.00498  -0.0925  0.6378  0.8263
   7.670   1.2072   0.00825   0.00498  -0.0926  0.6380  0.8263
   7.680   1.2074   0.00826   0.00499  -0.0925  0.6378  0.8263
   7.690   1.2074   0.00827   0.00501  -0.0923  0.6375  0.8264
   7.700   1.2076   0.00828   0.00502  -0.0921  0.6374  0.8264
   7.710   1.2090   0.00828   0.00503  -0.0922  0.6375  0.8264
   7.720   1.2095   0.00829   0.00503  -0.0921  0.6374  0.8264
   7.730   1.2092   0.00831   0.00505  -0.0919  0.6370  0.8264
   7.740   1.2095   0.00832   0.00506  -0.0917  0.6369  0.8264
   7.750   1.2103   0.00832   0.00507  -0.0917  0.6368  0.8265
   7.760   1.2098   0.00834   0.00509  -0.0914  0.6365  0.8265
   7.770   1.2116   0.00834   0.00509  -0.0916  0.6367  0.8265
   7.780   1.2109   0.00836   0.00511  -0.0912  0.6363  0.8265
   7.790   1.2126   0.00835   0.00511  -0.0914  0.6365  0.8265
   7.800   1.2111   0.00838   0.00514  -0.0909  0.6359  0.8266
   7.810   1.2103   0.00841   0.00516  -0.0906  0.6354  0.8266
   7.820   1.2129   0.00839   0.00515  -0.0909  0.6358  0.8266
   7.830   1.2130   0.00841   0.00517  -0.0907  0.6356  0.8266
   7.840   1.2140   0.00841   0.00517  -0.0907  0.6356  0.8266
   7.850   1.2143   0.00842   0.00519  -0.0906  0.6355  0.8266
   7.860   1.2127   0.00845   0.00521  -0.0901  0.6348  0.8267
   7.870   1.2144   0.00845   0.00522  -0.0902  0.6350  0.8267
   7.880   1.2140   0.00847   0.00523  -0.0900  0.6346  0.8267
   7.890   1.2164   0.00846   0.00523  -0.0903  0.6351  0.8267
   7.900   1.2160   0.00848   0.00524  -0.0900  0.6346  0.8267
   7.910   1.2147   0.00850   0.00527  -0.0895  0.6339  0.8267
   7.920   1.2166   0.00850   0.00527  -0.0897  0.6343  0.8267
   7.930   1.2179   0.00850   0.00527  -0.0898  0.6344  0.8268
   7.940   1.2184   0.00851   0.00528  -0.0897  0.6342  0.8268
   7.950   1.2185   0.00852   0.00529  -0.0895  0.6339  0.8268
   7.960   1.2167   0.00856   0.00532  -0.0890  0.6331  0.8268
   7.970   1.2197   0.00854   0.00531  -0.0894  0.6337  0.8268
   7.980   1.2208   0.00854   0.00531  -0.0894  0.6338  0.8268
   7.990   1.2184   0.00858   0.00535  -0.0888  0.6328  0.8269
   8.000   1.2196   0.00858   0.00535  -0.0888  0.6329  0.8269
   8.010   1.2220   0.00857   0.00534  -0.0891  0.6333  0.8269
   8.020   1.2209   0.00860   0.00537  -0.0887  0.6327  0.8269
   8.030   1.2206   0.00862   0.00538  -0.0884  0.6323  0.8269
   8.040   1.2213   0.00863   0.00539  -0.0884  0.6322  0.8269
   8.050   1.2230   0.00863   0.00539  -0.0885  0.6325  0.8269
   8.060   1.2233   0.00864   0.00540  -0.0884  0.6323  0.8270
   8.070   1.2232   0.00865   0.00542  -0.0882  0.6319  0.8270
   8.080   1.2256   0.00864   0.00541  -0.0885  0.6325  0.8270
   8.090   1.2220   0.00871   0.00548  -0.0876  0.6311  0.8270
   8.100   1.2227   0.00872   0.00550  -0.0876  0.6310  0.8270
   8.110   1.2231   0.00873   0.00551  -0.0875  0.6308  0.8271
   8.120   1.2268   0.00870   0.00547  -0.0880  0.6317  0.8271
   8.130   1.2259   0.00873   0.00551  -0.0876  0.6312  0.8271
   8.140   1.2260   0.00875   0.00553  -0.0875  0.6309  0.8271
   8.150   1.2271   0.00875   0.00553  -0.0875  0.6310  0.8271
   8.160   1.2249   0.00881   0.00560  -0.0869  0.6298  0.8272
   8.170   1.2259   0.00881   0.00560  -0.0869  0.6298  0.8272
   8.180   1.2274   0.00881   0.00560  -0.0870  0.6301  0.8272
   8.190   1.2295   0.00879   0.00558  -0.0872  0.6305  0.8272
   8.200   1.2296   0.00881   0.00560  -0.0871  0.6302  0.8272
   8.210   1.2290   0.00884   0.00564  -0.0867  0.6297  0.8272
   8.220   1.2305   0.00884   0.00563  -0.0869  0.6299  0.8272
   8.230   1.2293   0.00888   0.00568  -0.0865  0.6291  0.8273
   8.240   1.2300   0.00889   0.00569  -0.0864  0.6290  0.8273
   8.250   1.2302   0.00891   0.00571  -0.0862  0.6287  0.8273
   8.260   1.2309   0.00891   0.00572  -0.0862  0.6286  0.8273
   8.270   1.2321   0.00892   0.00572  -0.0863  0.6287  0.8273
   8.280   1.2317   0.00894   0.00575  -0.0860  0.6282  0.8273
   8.290   1.2279   0.00903   0.00584  -0.0851  0.6261  0.8274
   8.300   1.2331   0.00896   0.00577  -0.0859  0.6281  0.8274
   8.310   1.2339   0.00897   0.00579  -0.0859  0.6280  0.8274
   8.320   1.2355   0.00896   0.00578  -0.0860  0.6284  0.8274
   8.330   1.2343   0.00900   0.00582  -0.0856  0.6274  0.8274
   8.340   1.2352   0.00901   0.00583  -0.0856  0.6274  0.8274
   8.350   1.2360   0.00902   0.00584  -0.0855  0.6274  0.8274
   8.360   1.2344   0.00906   0.00589  -0.0851  0.6263  0.8275
   8.370   1.2348   0.00908   0.00590  -0.0850  0.6261  0.8275
   8.380   1.2344   0.00911   0.00593  -0.0847  0.6256  0.8275
   8.390   1.2358   0.00911   0.00593  -0.0848  0.6258  0.8275
   8.400   1.2355   0.00913   0.00595  -0.0846  0.6254  0.8276
   8.410   1.2378   0.00911   0.00594  -0.0848  0.6259  0.8276
   8.420   1.2373   0.00914   0.00597  -0.0845  0.6254  0.8276
   8.430   1.2371   0.00917   0.00600  -0.0843  0.6250  0.8276
   8.440   1.2382   0.00917   0.00600  -0.0843  0.6251  0.8276
   8.450   1.2336   0.00928   0.00609  -0.0833  0.6234  0.8277
   8.460   1.2361   0.00926   0.00608  -0.0836  0.6239  0.8277
   8.470   1.2321   0.00936   0.00617  -0.0827  0.6218  0.8278
   8.480   1.2395   0.00924   0.00607  -0.0839  0.6245  0.8277
   8.490   1.2373   0.00930   0.00613  -0.0833  0.6235  0.8278
   8.500   1.2399   0.00928   0.00611  -0.0836  0.6240  0.8278
   8.510   1.2371   0.00935   0.00617  -0.0829  0.6229  0.8278
   8.520   1.2381   0.00936   0.00618  -0.0829  0.6230  0.8278
   8.530   1.2383   0.00938   0.00620  -0.0828  0.6225  0.8279
   8.540   1.2380   0.00941   0.00624  -0.0825  0.6217  0.8279
   8.550   1.2347   0.00951   0.00634  -0.0817  0.6191  0.8280
   8.560   1.2399   0.00942   0.00625  -0.0825  0.6219  0.8279
   8.570   1.2404   0.00944   0.00627  -0.0824  0.6216  0.8279
   8.580   1.2381   0.00951   0.00635  -0.0819  0.6196  0.8280
   8.590   1.2412   0.00947   0.00631  -0.0822  0.6210  0.8280
   8.600   1.2405   0.00951   0.00635  -0.0819  0.6200  0.8280
   8.610   1.2380   0.00959   0.00643  -0.0813  0.6182  0.8281
   8.620   1.2414   0.00955   0.00639  -0.0818  0.6196  0.8281
   8.630   1.2412   0.00958   0.00642  -0.0816  0.6191  0.8281
   8.640   1.2409   0.00961   0.00645  -0.0813  0.6185  0.8281
   8.650   1.2329   0.00981   0.00664  -0.0797  0.6147  0.8282
   8.660   1.2415   0.00965   0.00649  -0.0811  0.6180  0.8282
   8.670   1.2428   0.00965   0.00649  -0.0812  0.6182  0.8282
   8.680   1.2365   0.00981   0.00665  -0.0798  0.6151  0.8283
   8.690   1.2392   0.00978   0.00662  -0.0801  0.6158  0.8283
   8.700   1.2435   0.00971   0.00656  -0.0808  0.6173  0.8282
   8.710   1.2423   0.00976   0.00661  -0.0804  0.6164  0.8283
   8.720   1.2429   0.00978   0.00663  -0.0803  0.6163  0.8283
   8.730   1.2437   0.00979   0.00664  -0.0803  0.6163  0.8283
   8.740   1.2388   0.00992   0.00676  -0.0792  0.6143  0.8284
   8.750   1.2430   0.00986   0.00670  -0.0798  0.6153  0.8284
   8.760   1.2394   0.00996   0.00680  -0.0790  0.6140  0.8284
   8.770   1.2402   0.00997   0.00681  -0.0790  0.6140  0.8285
   8.780   1.2338   0.01016   0.00700  -0.0776  0.6089  0.8286
   8.790   1.2364   0.01013   0.00697  -0.0779  0.6100  0.8286
   8.800   1.2429   0.01000   0.00684  -0.0789  0.6141  0.8285
   8.810   1.2360   0.01020   0.00703  -0.0775  0.6088  0.8286
   8.820   1.2445   0.01001   0.00686  -0.0789  0.6141  0.8285
   8.830   1.2385   0.01019   0.00703  -0.0777  0.6093  0.8286
   8.840   1.2416   0.01015   0.00699  -0.0780  0.6108  0.8286
   8.850   1.2428   0.01014   0.00699  -0.0781  0.6111  0.8286
   8.860   1.2374   0.01031   0.00715  -0.0769  0.6074  0.8287
   8.870   1.2381   0.01032   0.00716  -0.0769  0.6074  0.8287
   8.880   1.2412   0.01027   0.00712  -0.0773  0.6085  0.8287
   8.890   1.2414   0.01030   0.00715  -0.0771  0.6082  0.8287
   8.900   1.2386   0.01040   0.00724  -0.0765  0.6066  0.8288
   8.910   1.2344   0.01054   0.00737  -0.0756  0.6050  0.8289
   8.920   1.2380   0.01048   0.00732  -0.0760  0.6059  0.8288
   8.930   1.2397   0.01046   0.00731  -0.0762  0.6062  0.8288
   8.940   1.2208   0.01101   0.00782  -0.0727  0.5963  0.8291
   8.950   1.2200   0.01107   0.00787  -0.0724  0.5956  0.8291
   8.960   1.2369   0.01063   0.00747  -0.0752  0.6039  0.8289
   8.970   1.2335   0.01075   0.00759  -0.0744  0.6010  0.8290
   8.980   1.2216   0.01112   0.00793  -0.0722  0.5951  0.8291
   8.990   1.2314   0.01088   0.00770  -0.0737  0.5990  0.8291
   9.000   1.2309   0.01092   0.00775  -0.0735  0.5983  0.8291
   9.010   1.2246   0.01114   0.00795  -0.0722  0.5956  0.8292
   9.020   1.2137   0.01149   0.00828  -0.0702  0.5891  0.8293
   9.030   1.2121   0.01157   0.00836  -0.0697  0.5882  0.8293
   9.040   1.2303   0.01107   0.00790  -0.0727  0.5970  0.8292
   9.050   1.2187   0.01144   0.00824  -0.0705  0.5903  0.8293
   9.060   1.1913   0.01232   0.00906  -0.0657  0.5782  0.8296
   9.070   1.1802   0.01272   0.00944  -0.0637  0.5729  0.8297
   9.080   1.1912   0.01240   0.00914  -0.0654  0.5775  0.8296
   9.090   1.2192   0.01157   0.00837  -0.0700  0.5893  0.8294
   9.100   1.2153   0.01172   0.00851  -0.0691  0.5876  0.8295
   9.110   1.2065   0.01202   0.00880  -0.0675  0.5828  0.8296
   9.120   1.2099   0.01196   0.00874  -0.0679  0.5841  0.8296
   9.130   1.1928   0.01254   0.00928  -0.0649  0.5765  0.8297
   9.140   1.2099   0.01203   0.00880  -0.0676  0.5833  0.8296
   9.150   1.1951   0.01253   0.00928  -0.0649  0.5769  0.8298
   9.160   1.1609   0.01372   0.01039  -0.0591  0.5627  0.8301
   9.170   1.1622   0.01371   0.01039  -0.0592  0.5629  0.8301
   9.190   1.1462   0.01436   0.01101  -0.0562  0.5567  0.8303
   9.200   1.1842   0.01308   0.00981  -0.0623  0.5707  0.8300
   9.210   1.1309   0.01500   0.01162  -0.0535  0.5509  0.8305
   9.220   1.1641   0.01385   0.01054  -0.0587  0.5623  0.8302
   9.230   1.1626   0.01394   0.01062  -0.0583  0.5616  0.8302
   9.240   1.1580   0.01415   0.01082  -0.0574  0.5599  0.8303
   9.250   1.1531   0.01436   0.01102  -0.0565  0.5577  0.8303
   9.260   1.1425   0.01478   0.01142  -0.0546  0.5534  0.8305
   9.270   1.1482   0.01462   0.01127  -0.0554  0.5551  0.8304
   9.280   1.1556   0.01439   0.01106  -0.0564  0.5578  0.8304
   9.290   1.1140   0.01597   0.01256  -0.0496  0.5427  0.8308
   9.300   1.1277   0.01549   0.01211  -0.0516  0.5472  0.8307
   9.310   1.1438   0.01494   0.01159  -0.0541  0.5527  0.8305
   9.320   1.1124   0.01617   0.01276  -0.0489  0.5415  0.8308
   9.330   1.1173   0.01602   0.01262  -0.0495  0.5428  0.8308
   9.340   1.1040   0.01657   0.01314  -0.0473  0.5376  0.8309
   9.350   1.0981   0.01684   0.01340  -0.0462  0.5350  0.8310
   9.360   1.0956   0.01699   0.01355  -0.0457  0.5340  0.8310
   9.370   1.0984   0.01692   0.01349  -0.0460  0.5347  0.8310
   9.390   1.0722   0.01806   0.01457  -0.0416  0.5242  0.8313
   9.400   1.0786   0.01785   0.01437  -0.0425  0.5264  0.8312
   9.410   1.0960   0.01720   0.01376  -0.0451  0.5330  0.8311
   9.420   1.0725   0.01819   0.01470  -0.0413  0.5237  0.8313
   9.430   1.0376   0.01968   0.01612  -0.0359  0.5095  0.8316
   9.440   1.0615   0.01873   0.01522  -0.0393  0.5191  0.8314
   9.450   1.0876   0.01772   0.01426  -0.0432  0.5287  0.8313
   9.460   1.0651   0.01868   0.01517  -0.0396  0.5200  0.8314
   9.470   1.0623   0.01884   0.01533  -0.0390  0.5184  0.8315
   9.480   1.0440   0.01966   0.01610  -0.0361  0.5108  0.8316
   9.490   1.0659   0.01879   0.01529  -0.0393  0.5193  0.8315
   9.500   1.0623   0.01898   0.01547  -0.0386  0.5173  0.8315
