  
       XFOIL         Version 6.94
  
 Calculated polar for: 1080                                            
  
 1 1 Reynolds number fixed          Mach number fixed         
  
 xtrf =   1.000 (top)        1.000 (bottom)  
 Mach =   0.000     Re =     2.000 e 6     Ncrit =   9.000
  
  alpha     CL        CD       CDp       CM    Top_Xtr Bot_Xtr
 ------- -------- --------- --------- -------- ------- -------
   6.020   1.2154   0.00839   0.00375  -0.0821  0.4349  0.7334
   6.030   1.2161   0.00840   0.00376  -0.0820  0.4359  0.7335
   6.040   1.2175   0.00840   0.00376  -0.0821  0.4344  0.7335
   6.050   1.2186   0.00840   0.00376  -0.0821  0.4342  0.7336
   6.060   1.2190   0.00842   0.00378  -0.0820  0.4353  0.7336
   6.070   1.2206   0.00841   0.00377  -0.0821  0.4339  0.7337
   6.080   1.2211   0.00842   0.00378  -0.0820  0.4349  0.7337
   6.090   1.2223   0.00842   0.00378  -0.0821  0.4345  0.7338
   6.100   1.2226   0.00843   0.00380  -0.0819  0.4355  0.7338
   6.110   1.2236   0.00844   0.00380  -0.0819  0.4356  0.7339
   6.120   1.2254   0.00842   0.00379  -0.0821  0.4336  0.7339
   6.130   1.2262   0.00843   0.00380  -0.0820  0.4344  0.7340
   6.140   1.2270   0.00844   0.00381  -0.0820  0.4347  0.7341
   6.150   1.2279   0.00844   0.00381  -0.0820  0.4350  0.7341
   6.160   1.2292   0.00844   0.00381  -0.0820  0.4341  0.7342
   6.170   1.2301   0.00844   0.00382  -0.0820  0.4341  0.7342
   6.180   1.2313   0.00844   0.00382  -0.0820  0.4330  0.7342
   6.190   1.2322   0.00845   0.00382  -0.0820  0.4329  0.7343
   6.200   1.2331   0.00845   0.00382  -0.0820  0.4324  0.7344
   6.210   1.2341   0.00846   0.00383  -0.0820  0.4325  0.7344
   6.220   1.2351   0.00846   0.00384  -0.0820  0.4334  0.7345
   6.230   1.2360   0.00846   0.00384  -0.0820  0.4322  0.7345
   6.240   1.2360   0.00849   0.00385  -0.0818  0.4293  0.7346
   6.250   1.2380   0.00847   0.00385  -0.0820  0.4330  0.7346
   6.260   1.2390   0.00848   0.00386  -0.0820  0.4333  0.7347
   6.270   1.2400   0.00848   0.00386  -0.0820  0.4329  0.7347
   6.280   1.2409   0.00848   0.00386  -0.0820  0.4325  0.7348
   6.290   1.2419   0.00849   0.00387  -0.0820  0.4328  0.7348
   6.300   1.2428   0.00849   0.00387  -0.0820  0.4325  0.7349
   6.310   1.2435   0.00850   0.00388  -0.0819  0.4308  0.7349
   6.320   1.2446   0.00850   0.00388  -0.0819  0.4312  0.7350
   6.330   1.2456   0.00850   0.00389  -0.0819  0.4315  0.7351
   6.340   1.2465   0.00851   0.00389  -0.0819  0.4310  0.7351
   6.350   1.2472   0.00852   0.00390  -0.0818  0.4303  0.7352
   6.360   1.2482   0.00852   0.00390  -0.0818  0.4303  0.7352
   6.370   1.2493   0.00852   0.00390  -0.0818  0.4307  0.7353
   6.380   1.2501   0.00853   0.00391  -0.0818  0.4303  0.7353
   6.390   1.2512   0.00853   0.00391  -0.0818  0.4307  0.7354
   6.400   1.2520   0.00854   0.00392  -0.0818  0.4303  0.7354
   6.410   1.2527   0.00855   0.00393  -0.0817  0.4297  0.7355
   6.420   1.2535   0.00856   0.00393  -0.0817  0.4294  0.7355
   6.430   1.2545   0.00856   0.00394  -0.0817  0.4295  0.7356
   6.440   1.2556   0.00856   0.00394  -0.0817  0.4296  0.7356
   6.450   1.2565   0.00856   0.00394  -0.0817  0.4296  0.7357
   6.460   1.2571   0.00858   0.00395  -0.0816  0.4289  0.7357
   6.470   1.2573   0.00860   0.00396  -0.0815  0.4279  0.7358
   6.480   1.2590   0.00859   0.00396  -0.0816  0.4288  0.7359
   6.490   1.2595   0.00860   0.00397  -0.0815  0.4282  0.7359
   6.500   1.2606   0.00860   0.00397  -0.0815  0.4283  0.7360
   6.510   1.2613   0.00861   0.00398  -0.0815  0.4280  0.7360
   6.520   1.2612   0.00864   0.00400  -0.0813  0.4269  0.7361
   6.530   1.2634   0.00861   0.00399  -0.0815  0.4282  0.7361
   6.540   1.2646   0.00861   0.00399  -0.0815  0.4286  0.7362
   6.550   1.2653   0.00862   0.00400  -0.0815  0.4282  0.7362
   6.560   1.2656   0.00864   0.00401  -0.0813  0.4274  0.7363
   6.570   1.2658   0.00866   0.00402  -0.0812  0.4267  0.7364
   6.580   1.2674   0.00865   0.00402  -0.0813  0.4272  0.7364
   6.590   1.2682   0.00866   0.00403  -0.0812  0.4271  0.7365
   6.600   1.2684   0.00868   0.00404  -0.0811  0.4264  0.7365
   6.610   1.2696   0.00868   0.00405  -0.0811  0.4265  0.7366
   6.620   1.2704   0.00869   0.00405  -0.0811  0.4265  0.7366
   6.630   1.2708   0.00870   0.00406  -0.0810  0.4259  0.7367
   6.640   1.2722   0.00870   0.00406  -0.0811  0.4264  0.7368
   6.650   1.2731   0.00870   0.00407  -0.0810  0.4263  0.7368
   6.660   1.2741   0.00871   0.00407  -0.0810  0.4264  0.7369
   6.670   1.2746   0.00872   0.00408  -0.0810  0.4260  0.7369
   6.680   1.2752   0.00873   0.00409  -0.0809  0.4237  0.7370
   6.690   1.2765   0.00873   0.00410  -0.0809  0.4259  0.7370
   6.700   1.2768   0.00875   0.00411  -0.0808  0.4251  0.7371
   6.710   1.2779   0.00875   0.00411  -0.0808  0.4247  0.7372
   6.720   1.2786   0.00876   0.00412  -0.0808  0.4253  0.7372
   6.730   1.2799   0.00875   0.00412  -0.0808  0.4243  0.7373
   6.740   1.2807   0.00876   0.00413  -0.0808  0.4248  0.7373
   6.750   1.2818   0.00876   0.00413  -0.0808  0.4244  0.7373
   6.760   1.2828   0.00877   0.00413  -0.0808  0.4243  0.7374
   6.770   1.2809   0.00883   0.00416  -0.0803  0.4173  0.7375
   6.780   1.2847   0.00877   0.00414  -0.0808  0.4236  0.7375
   6.790   1.2856   0.00878   0.00415  -0.0808  0.4232  0.7376
   6.800   1.2866   0.00878   0.00415  -0.0808  0.4239  0.7377
   6.810   1.2875   0.00879   0.00416  -0.0807  0.4239  0.7377
   6.820   1.2880   0.00880   0.00416  -0.0807  0.4210  0.7378
   6.830   1.2894   0.00879   0.00417  -0.0807  0.4234  0.7378
   6.840   1.2897   0.00881   0.00417  -0.0806  0.4206  0.7379
   6.850   1.2912   0.00881   0.00418  -0.0807  0.4223  0.7379
   6.860   1.2921   0.00881   0.00418  -0.0807  0.4225  0.7380
   6.870   1.2932   0.00881   0.00419  -0.0807  0.4231  0.7380
   6.880   1.2923   0.00886   0.00421  -0.0803  0.4185  0.7381
   6.890   1.2930   0.00887   0.00422  -0.0803  0.4182  0.7382
   6.900   1.2847   0.00910   0.00435  -0.0786  0.4039  0.7383
   6.910   1.2952   0.00887   0.00422  -0.0803  0.4187  0.7383
   6.920   1.2856   0.00913   0.00437  -0.0784  0.4012  0.7384
   6.930   1.2982   0.00885   0.00422  -0.0805  0.4205  0.7384
   6.940   1.2984   0.00887   0.00423  -0.0804  0.4193  0.7384
   6.950   1.3000   0.00886   0.00423  -0.0805  0.4204  0.7385
   6.960   1.2988   0.00892   0.00426  -0.0801  0.4173  0.7386
   6.970   1.2889   0.00919   0.00442  -0.0781  0.3988  0.7388
   6.980   1.2961   0.00904   0.00433  -0.0792  0.4086  0.7387
   6.990   1.3041   0.00887   0.00425  -0.0805  0.4211  0.7387
   7.000   1.3014   0.00896   0.00430  -0.0798  0.4162  0.7388
   7.010   1.2924   0.00921   0.00445  -0.0780  0.3985  0.7390
   7.020   1.2945   0.00919   0.00443  -0.0782  0.4003  0.7390
   7.030   1.3002   0.00907   0.00437  -0.0790  0.4078  0.7390
   7.050   1.2944   0.00927   0.00450  -0.0777  0.3965  0.7392
   7.060   1.3033   0.00908   0.00438  -0.0791  0.4082  0.7392
   7.070   1.2930   0.00937   0.00456  -0.0770  0.3920  0.7393
   7.080   1.3014   0.00918   0.00445  -0.0784  0.4031  0.7393
   7.090   1.2883   0.00954   0.00468  -0.0758  0.3843  0.7395
   7.100   1.2908   0.00951   0.00466  -0.0761  0.3857  0.7395
   7.110   1.3019   0.00925   0.00450  -0.0779  0.3987  0.7395
   7.120   1.2911   0.00956   0.00470  -0.0758  0.3844  0.7397
   7.130   1.2915   0.00958   0.00471  -0.0757  0.3835  0.7397
   7.140   1.2864   0.00974   0.00483  -0.0746  0.3757  0.7398
   7.150   1.2807   0.00992   0.00496  -0.0734  0.3677  0.7400
   7.160   1.3151   0.00906   0.00440  -0.0794  0.4149  0.7397
   7.170   1.3076   0.00928   0.00453  -0.0779  0.3989  0.7398
   7.180   1.3109   0.00922   0.00450  -0.0783  0.4037  0.7398
   7.190   1.2907   0.00977   0.00486  -0.0745  0.3755  0.7401
   7.200   1.3015   0.00952   0.00469  -0.0762  0.3871  0.7400
   7.210   1.2922   0.00979   0.00488  -0.0744  0.3752  0.7402
   7.220   1.2997   0.00962   0.00477  -0.0756  0.3834  0.7402
   7.230   1.3017   0.00960   0.00476  -0.0758  0.3849  0.7402
   7.240   1.3010   0.00965   0.00479  -0.0755  0.3824  0.7403
   7.250   1.3148   0.00932   0.00458  -0.0778  0.3987  0.7402
   7.260   1.3127   0.00940   0.00463  -0.0772  0.3955  0.7403
   7.270   1.2876   0.01008   0.00511  -0.0726  0.3645  0.7406
   7.280   1.2960   0.00989   0.00497  -0.0739  0.3723  0.7405
   7.290   1.3180   0.00935   0.00461  -0.0776  0.3981  0.7404
   7.300   1.2967   0.00993   0.00501  -0.0736  0.3708  0.7406
   7.310   1.2998   0.00988   0.00497  -0.0740  0.3740  0.7407
   7.320   1.3042   0.00980   0.00491  -0.0746  0.3770  0.7407
   7.330   1.2845   0.01034   0.00532  -0.0710  0.3555  0.7409
   7.340   1.2880   0.01028   0.00527  -0.0714  0.3577  0.7409
   7.350   1.2915   0.01022   0.00523  -0.0719  0.3606  0.7409
   7.360   1.2971   0.01010   0.00514  -0.0727  0.3657  0.7409
   7.370   1.2980   0.01010   0.00515  -0.0727  0.3657  0.7410
   7.380   1.2922   0.01029   0.00529  -0.0715  0.3584  0.7411
   7.390   1.2916   0.01033   0.00532  -0.0712  0.3570  0.7412
   7.400   1.2871   0.01048   0.00544  -0.0703  0.3524  0.7412
   7.410   1.3032   0.01008   0.00514  -0.0729  0.3671  0.7411
   7.420   1.2990   0.01022   0.00525  -0.0720  0.3623  0.7412
   7.430   1.3073   0.01003   0.00511  -0.0733  0.3696  0.7412
   7.440   1.3096   0.01000   0.00509  -0.0735  0.3714  0.7412
   7.450   1.3013   0.01025   0.00528  -0.0719  0.3618  0.7414
