  
       XFOIL         Version 6.94
  
 Calculated polar for: 1080                                            
  
 1 1 Reynolds number fixed          Mach number fixed         
  
 xtrf =   1.000 (top)        1.000 (bottom)  
 Mach =   0.000     Re =     2.000 e 6     Ncrit =   9.000
  
  alpha     CL        CD       CDp       CM    Top_Xtr Bot_Xtr
 ------- -------- --------- --------- -------- ------- -------
   6.010   1.2867   0.00799   0.00448  -0.1460  0.6399  0.8331
   6.020   1.2901   0.00799   0.00448  -0.1466  0.6404  0.8331
   6.030   1.2866   0.00800   0.00449  -0.1456  0.6394  0.8331
   6.040   1.2818   0.00801   0.00449  -0.1444  0.6379  0.8332
   6.050   1.2827   0.00801   0.00449  -0.1444  0.6378  0.8332
   6.060   1.2860   0.00801   0.00450  -0.1449  0.6385  0.8332
   6.070   1.2850   0.00802   0.00450  -0.1445  0.6379  0.8332
   6.080   1.2846   0.00802   0.00450  -0.1442  0.6375  0.8332
   6.090   1.2913   0.00802   0.00451  -0.1454  0.6390  0.8332
   6.100   1.2880   0.00803   0.00451  -0.1445  0.6379  0.8332
   6.110   1.2898   0.00803   0.00452  -0.1446  0.6381  0.8332
   6.120   1.2924   0.00803   0.00452  -0.1450  0.6385  0.8332
   6.130   1.2913   0.00804   0.00453  -0.1445  0.6380  0.8332
   6.140   1.2883   0.00804   0.00451  -0.1437  0.6366  0.8333
   6.150   1.2924   0.00804   0.00453  -0.1444  0.6377  0.8333
   6.160   1.2948   0.00804   0.00454  -0.1447  0.6381  0.8332
   6.170   1.2929   0.00805   0.00454  -0.1441  0.6372  0.8333
   6.180   1.2956   0.00805   0.00455  -0.1445  0.6378  0.8333
   6.190   1.3008   0.00805   0.00455  -0.1453  0.6388  0.8332
   6.200   1.2988   0.00806   0.00455  -0.1447  0.6381  0.8332
   6.210   1.2989   0.00806   0.00456  -0.1445  0.6379  0.8333
   6.220   1.2998   0.00807   0.00456  -0.1445  0.6378  0.8333
   6.230   1.2964   0.00808   0.00455  -0.1436  0.6363  0.8333
   6.240   1.3016   0.00807   0.00457  -0.1445  0.6377  0.8333
   6.250   1.2987   0.00808   0.00456  -0.1437  0.6363  0.8333
   6.260   1.3041   0.00808   0.00458  -0.1446  0.6379  0.8333
   6.270   1.2972   0.00811   0.00460  -0.1430  0.6356  0.8334
   6.280   1.2999   0.00811   0.00459  -0.1433  0.6360  0.8334
   6.290   1.2992   0.00812   0.00461  -0.1430  0.6356  0.8334
   6.300   1.2986   0.00814   0.00463  -0.1427  0.6352  0.8334
   6.310   1.2994   0.00814   0.00464  -0.1426  0.6351  0.8334
   6.320   1.2986   0.00816   0.00466  -0.1423  0.6346  0.8334
   6.330   1.3015   0.00815   0.00465  -0.1427  0.6352  0.8334
   6.340   1.2988   0.00818   0.00469  -0.1419  0.6340  0.8334
   6.350   1.3051   0.00814   0.00464  -0.1430  0.6356  0.8334
   6.360   1.3015   0.00818   0.00469  -0.1421  0.6343  0.8334
   6.370   1.3058   0.00816   0.00466  -0.1428  0.6353  0.8334
   6.380   1.3051   0.00817   0.00468  -0.1424  0.6348  0.8334
   6.390   1.3041   0.00819   0.00471  -0.1420  0.6342  0.8335
   6.400   1.3120   0.00815   0.00464  -0.1434  0.6360  0.8334
   6.410   1.3054   0.00821   0.00472  -0.1419  0.6339  0.8335
   6.420   1.3028   0.00823   0.00475  -0.1412  0.6326  0.8335
   6.430   1.3083   0.00821   0.00472  -0.1421  0.6342  0.8335
   6.440   1.3076   0.00822   0.00474  -0.1418  0.6337  0.8335
   6.450   1.3098   0.00822   0.00474  -0.1420  0.6341  0.8335
   6.460   1.3139   0.00820   0.00471  -0.1426  0.6350  0.8334
   6.470   1.3153   0.00820   0.00471  -0.1427  0.6352  0.8334
   6.480   1.3121   0.00823   0.00476  -0.1419  0.6339  0.8335
   6.490   1.3087   0.00827   0.00480  -0.1410  0.6323  0.8335
   6.500   1.3131   0.00825   0.00478  -0.1417  0.6336  0.8335
   6.510   1.3117   0.00827   0.00480  -0.1412  0.6327  0.8335
   6.520   1.3117   0.00828   0.00481  -0.1410  0.6323  0.8335
   6.530   1.3161   0.00826   0.00479  -0.1417  0.6336  0.8335
   6.540   1.3111   0.00831   0.00484  -0.1405  0.6314  0.8336
   6.550   1.3111   0.00832   0.00485  -0.1403  0.6311  0.8336
   6.560   1.3142   0.00831   0.00484  -0.1408  0.6318  0.8336
   6.570   1.3196   0.00828   0.00482  -0.1417  0.6335  0.8335
   6.580   1.3159   0.00832   0.00485  -0.1407  0.6318  0.8336
   6.590   1.3081   0.00841   0.00493  -0.1390  0.6280  0.8337
   6.600   1.3160   0.00834   0.00487  -0.1404  0.6311  0.8336
   6.610   1.3144   0.00837   0.00489  -0.1398  0.6303  0.8336
   6.620   1.3119   0.00841   0.00493  -0.1391  0.6287  0.8337
   6.630   1.3134   0.00841   0.00493  -0.1393  0.6291  0.8336
   6.640   1.3136   0.00842   0.00495  -0.1391  0.6286  0.8337
   6.650   1.3157   0.00841   0.00494  -0.1393  0.6294  0.8337
   6.660   1.3154   0.00843   0.00496  -0.1391  0.6286  0.8337
   6.670   1.3230   0.00837   0.00491  -0.1404  0.6312  0.8336
   6.680   1.3229   0.00838   0.00492  -0.1402  0.6309  0.8336
   6.690   1.3192   0.00843   0.00496  -0.1393  0.6293  0.8337
   6.700   1.3185   0.00846   0.00499  -0.1389  0.6281  0.8337
   6.710   1.3167   0.00849   0.00503  -0.1384  0.6263  0.8337
   6.720   1.3220   0.00845   0.00498  -0.1393  0.6292  0.8337
   6.730   1.3213   0.00847   0.00501  -0.1389  0.6280  0.8337
   6.740   1.3260   0.00843   0.00497  -0.1397  0.6301  0.8337
   6.750   1.3244   0.00847   0.00501  -0.1392  0.6289  0.8337
   6.760   1.3210   0.00852   0.00507  -0.1383  0.6261  0.8337
   6.770   1.3230   0.00851   0.00506  -0.1385  0.6268  0.8337
   6.780   1.3213   0.00855   0.00510  -0.1380  0.6253  0.8338
   6.790   1.3243   0.00853   0.00508  -0.1384  0.6264  0.8337
   6.800   1.3265   0.00852   0.00507  -0.1386  0.6272  0.8337
   6.810   1.3314   0.00848   0.00502  -0.1394  0.6297  0.8337
   6.820   1.3298   0.00851   0.00506  -0.1389  0.6281  0.8337
   6.830   1.3258   0.00858   0.00513  -0.1380  0.6254  0.8338
   6.840   1.3346   0.00849   0.00503  -0.1395  0.6298  0.8337
   6.850   1.3281   0.00858   0.00514  -0.1380  0.6255  0.8338
   6.860   1.3268   0.00862   0.00517  -0.1376  0.6246  0.8338
   6.870   1.3249   0.00867   0.00521  -0.1370  0.6235  0.8338
   6.880   1.3333   0.00857   0.00513  -0.1385  0.6269  0.8338
   6.890   1.3302   0.00863   0.00518  -0.1377  0.6249  0.8338
   6.900   1.3348   0.00858   0.00515  -0.1384  0.6267  0.8338
   6.910   1.3298   0.00867   0.00522  -0.1373  0.6240  0.8338
   6.920   1.3162   0.00893   0.00545  -0.1345  0.6150  0.8340
   6.930   1.3330   0.00866   0.00522  -0.1375  0.6245  0.8338
   6.940   1.3295   0.00873   0.00528  -0.1366  0.6225  0.8339
   6.950   1.3364   0.00865   0.00522  -0.1378  0.6252  0.8338
   6.960   1.3365   0.00867   0.00523  -0.1376  0.6248  0.8338
   6.970   1.3372   0.00867   0.00524  -0.1376  0.6247  0.8338
   6.980   1.3339   0.00874   0.00530  -0.1367  0.6231  0.8339
   6.990   1.3387   0.00869   0.00526  -0.1375  0.6246  0.8339
   7.000   1.3396   0.00870   0.00527  -0.1375  0.6246  0.8339
   7.010   1.3335   0.00881   0.00537  -0.1361  0.6205  0.8339
   7.020   1.3420   0.00870   0.00527  -0.1376  0.6248  0.8339
   7.030   1.3327   0.00887   0.00543  -0.1356  0.6188  0.8340
   7.040   1.3405   0.00876   0.00532  -0.1369  0.6235  0.8339
   7.050   1.3443   0.00872   0.00530  -0.1375  0.6246  0.8339
   7.060   1.3367   0.00886   0.00543  -0.1358  0.6197  0.8340
   7.070   1.3430   0.00878   0.00535  -0.1369  0.6235  0.8339
   7.080   1.3410   0.00883   0.00540  -0.1363  0.6215  0.8339
   7.090   1.3392   0.00889   0.00546  -0.1358  0.6196  0.8340
   7.100   1.3315   0.00905   0.00560  -0.1341  0.6143  0.8341
   7.110   1.3315   0.00908   0.00563  -0.1339  0.6138  0.8341
   7.120   1.3358   0.00902   0.00558  -0.1346  0.6167  0.8340
   7.130   1.3321   0.00912   0.00567  -0.1337  0.6129  0.8341
   7.140   1.3435   0.00892   0.00550  -0.1357  0.6195  0.8340
   7.150   1.3362   0.00908   0.00564  -0.1341  0.6146  0.8341
   7.160   1.3432   0.00897   0.00554  -0.1353  0.6183  0.8340
   7.170   1.3409   0.00904   0.00560  -0.1347  0.6170  0.8341
   7.180   1.3398   0.00908   0.00565  -0.1343  0.6157  0.8341
   7.190   1.3277   0.00937   0.00591  -0.1318  0.6071  0.8342
   7.200   1.3423   0.00908   0.00565  -0.1344  0.6166  0.8341
   7.210   1.3450   0.00905   0.00562  -0.1347  0.6172  0.8341
   7.220   1.3502   0.00898   0.00557  -0.1355  0.6193  0.8340
   7.230   1.3501   0.00900   0.00559  -0.1353  0.6187  0.8340
   7.240   1.3420   0.00919   0.00576  -0.1336  0.6132  0.8341
   7.250   1.3516   0.00902   0.00561  -0.1353  0.6185  0.8341
   7.260   1.3371   0.00935   0.00590  -0.1324  0.6099  0.8342
   7.270   1.3226   0.00973   0.00625  -0.1295  0.6002  0.8344
   7.280   1.3484   0.00915   0.00573  -0.1341  0.6157  0.8341
   7.290   1.3383   0.00940   0.00596  -0.1320  0.6085  0.8342
   7.300   1.3479   0.00922   0.00579  -0.1337  0.6138  0.8342
   7.310   1.3475   0.00925   0.00583  -0.1334  0.6129  0.8342
   7.320   1.3448   0.00934   0.00591  -0.1327  0.6110  0.8342
   7.330   1.3532   0.00918   0.00577  -0.1341  0.6161  0.8341
   7.340   1.3521   0.00923   0.00581  -0.1337  0.6144  0.8342
   7.350   1.3391   0.00955   0.00611  -0.1312  0.6058  0.8343
   7.360   1.3362   0.00965   0.00620  -0.1305  0.6041  0.8344
   7.370   1.3537   0.00927   0.00586  -0.1335  0.6136  0.8342
   7.380   1.3451   0.00949   0.00606  -0.1317  0.6078  0.8343
   7.400   1.3298   0.00994   0.00647  -0.1286  0.5982  0.8345
   7.410   1.3265   0.01007   0.00659  -0.1279  0.5961  0.8345
   7.420   1.3536   0.00941   0.00599  -0.1326  0.6111  0.8343
   7.430   1.3207   0.01029   0.00680  -0.1265  0.5920  0.8346
   7.440   1.3424   0.00974   0.00629  -0.1302  0.6039  0.8344
   7.450   1.3311   0.01007   0.00660  -0.1280  0.5969  0.8345
   7.460   1.3028   0.01095   0.00742  -0.1229  0.5822  0.8348
   7.470   1.2966   0.01119   0.00765  -0.1217  0.5793  0.8349
   7.500   1.3641   0.00938   0.00599  -0.1332  0.6131  0.8343
   7.510   1.3557   0.00961   0.00620  -0.1315  0.6078  0.8344
   7.520   1.3044   0.01112   0.00760  -0.1222  0.5808  0.8349
   7.530   1.3173   0.01075   0.00725  -0.1243  0.5864  0.8347
   7.540   1.3322   0.01033   0.00686  -0.1267  0.5932  0.8346
   7.550   1.3157   0.01087   0.00736  -0.1237  0.5850  0.8348
   7.560   1.2546   0.01306   0.00945  -0.1133  0.5608  0.8354
   7.570   1.3416   0.01017   0.00672  -0.1279  0.5974  0.8346
   7.580   1.3085   0.01121   0.00770  -0.1219  0.5806  0.8349
   7.590   1.3211   0.01085   0.00735  -0.1240  0.5859  0.8348
   7.600   1.3486   0.01007   0.00663  -0.1286  0.5993  0.8345
   7.610   1.3326   0.01056   0.00709  -0.1256  0.5909  0.8347
   7.620   1.2409   0.01387   0.01025  -0.1102  0.5550  0.8355
