  
       XFOIL         Version 6.94
  
 Calculated polar for: 1080                                            
  
 1 1 Reynolds number fixed          Mach number fixed         
  
 xtrf =   1.000 (top)        1.000 (bottom)  
 Mach =   0.000     Re =     2.000 e 6     Ncrit =   9.000
  
  alpha     CL        CD       CDp       CM    Top_Xtr Bot_Xtr
 ------- -------- --------- --------- -------- ------- -------
   6.000   0.7636   0.01074   0.00635  -0.0075  0.4802  0.7513
   6.010   0.7644   0.01075   0.00636  -0.0075  0.4799  0.7513
   6.020   0.7652   0.01076   0.00637  -0.0075  0.4798  0.7514
   6.030   0.7661   0.01076   0.00638  -0.0075  0.4798  0.7514
   6.040   0.7668   0.01078   0.00639  -0.0074  0.4795  0.7515
   6.050   0.7675   0.01079   0.00640  -0.0074  0.4792  0.7515
   6.060   0.7684   0.01079   0.00641  -0.0074  0.4794  0.7516
   6.070   0.7693   0.01080   0.00642  -0.0074  0.4794  0.7516
   6.080   0.7702   0.01081   0.00642  -0.0074  0.4792  0.7517
   6.090   0.7710   0.01082   0.00643  -0.0073  0.4791  0.7517
   6.100   0.7716   0.01083   0.00645  -0.0073  0.4786  0.7518
   6.110   0.7727   0.01083   0.00645  -0.0073  0.4788  0.7519
   6.120   0.7731   0.01085   0.00647  -0.0072  0.4783  0.7519
   6.130   0.7737   0.01087   0.00648  -0.0071  0.4780  0.7520
   6.140   0.7748   0.01087   0.00648  -0.0071  0.4782  0.7520
   6.150   0.7751   0.01089   0.00650  -0.0070  0.4776  0.7521
   6.160   0.7765   0.01088   0.00650  -0.0071  0.4780  0.7521
   6.170   0.7768   0.01091   0.00652  -0.0070  0.4774  0.7522
   6.180   0.7778   0.01091   0.00653  -0.0070  0.4776  0.7522
   6.190   0.7782   0.01093   0.00654  -0.0069  0.4771  0.7523
   6.200   0.7791   0.01094   0.00655  -0.0069  0.4771  0.7523
   6.210   0.7798   0.01095   0.00656  -0.0069  0.4769  0.7524
   6.220   0.7808   0.01095   0.00657  -0.0069  0.4770  0.7525
   6.230   0.7815   0.01097   0.00658  -0.0068  0.4767  0.7525
   6.240   0.7819   0.01099   0.00660  -0.0067  0.4764  0.7526
   6.250   0.7829   0.01099   0.00660  -0.0067  0.4765  0.7526
   6.260   0.7833   0.01101   0.00662  -0.0066  0.4760  0.7527
   6.270   0.7836   0.01103   0.00664  -0.0065  0.4756  0.7527
   6.280   0.7850   0.01103   0.00664  -0.0066  0.4759  0.7528
   6.290   0.7857   0.01104   0.00665  -0.0066  0.4758  0.7529
   6.300   0.7862   0.01106   0.00667  -0.0065  0.4755  0.7529
   6.310   0.7866   0.01108   0.00668  -0.0064  0.4753  0.7530
   6.320   0.7875   0.01109   0.00669  -0.0064  0.4752  0.7530
   6.330   0.7875   0.01111   0.00672  -0.0062  0.4747  0.7531
   6.340   0.7885   0.01112   0.00672  -0.0062  0.4747  0.7531
   6.350   0.7889   0.01114   0.00674  -0.0061  0.4744  0.7532
   6.360   0.7890   0.01117   0.00677  -0.0060  0.4740  0.7533
   6.370   0.7901   0.01117   0.00677  -0.0060  0.4741  0.7533
   6.380   0.7916   0.01116   0.00677  -0.0061  0.4744  0.7533
   6.390   0.7919   0.01119   0.00679  -0.0060  0.4741  0.7534
   6.400   0.7921   0.01121   0.00681  -0.0058  0.4737  0.7535
   6.410   0.7930   0.01122   0.00682  -0.0058  0.4737  0.7535
   6.420   0.7935   0.01124   0.00684  -0.0058  0.4735  0.7536
   6.430   0.7942   0.01125   0.00685  -0.0057  0.4734  0.7536
   6.440   0.7949   0.01126   0.00686  -0.0057  0.4731  0.7537
   6.450   0.7957   0.01127   0.00687  -0.0056  0.4732  0.7537
   6.460   0.7967   0.01128   0.00687  -0.0057  0.4729  0.7538
   6.470   0.7976   0.01129   0.00688  -0.0056  0.4728  0.7538
   6.480   0.7986   0.01129   0.00689  -0.0057  0.4725  0.7539
   6.490   0.7995   0.01130   0.00690  -0.0056  0.4723  0.7540
   6.500   0.8003   0.01130   0.00691  -0.0056  0.4721  0.7540
   6.510   0.8012   0.01131   0.00692  -0.0056  0.4723  0.7541
   6.520   0.8021   0.01132   0.00692  -0.0056  0.4723  0.7542
   6.530   0.8030   0.01133   0.00693  -0.0056  0.4719  0.7542
   6.540   0.8039   0.01134   0.00694  -0.0056  0.4718  0.7542
   6.550   0.8047   0.01135   0.00695  -0.0056  0.4713  0.7543
   6.560   0.8056   0.01135   0.00696  -0.0055  0.4715  0.7544
   6.570   0.8065   0.01136   0.00697  -0.0055  0.4716  0.7544
   6.580   0.8073   0.01137   0.00698  -0.0055  0.4715  0.7545
   6.590   0.8082   0.01138   0.00698  -0.0055  0.4713  0.7545
   6.600   0.8090   0.01139   0.00699  -0.0055  0.4709  0.7546
   6.610   0.8099   0.01139   0.00700  -0.0055  0.4708  0.7546
   6.620   0.8108   0.01140   0.00701  -0.0055  0.4708  0.7547
   6.630   0.8116   0.01141   0.00702  -0.0054  0.4707  0.7547
   6.640   0.8123   0.01142   0.00703  -0.0054  0.4701  0.7548
   6.650   0.8132   0.01143   0.00704  -0.0054  0.4702  0.7549
   6.660   0.8141   0.01144   0.00705  -0.0054  0.4701  0.7549
   6.670   0.8149   0.01145   0.00706  -0.0054  0.4699  0.7549
   6.680   0.8158   0.01146   0.00707  -0.0053  0.4698  0.7550
   6.690   0.8165   0.01147   0.00708  -0.0053  0.4694  0.7551
   6.700   0.8173   0.01148   0.00709  -0.0053  0.4693  0.7551
   6.710   0.8181   0.01149   0.00710  -0.0052  0.4691  0.7552
   6.720   0.8188   0.01150   0.00711  -0.0052  0.4688  0.7552
   6.730   0.8196   0.01151   0.00712  -0.0052  0.4687  0.7553
   6.740   0.8204   0.01152   0.00713  -0.0051  0.4684  0.7553
   6.750   0.8212   0.01153   0.00714  -0.0051  0.4683  0.7554
   6.760   0.8221   0.01154   0.00715  -0.0051  0.4683  0.7554
   6.770   0.8227   0.01155   0.00716  -0.0051  0.4679  0.7555
   6.780   0.8236   0.01156   0.00717  -0.0050  0.4679  0.7555
   6.790   0.8246   0.01157   0.00718  -0.0051  0.4681  0.7556
   6.800   0.8251   0.01159   0.00719  -0.0050  0.4675  0.7557
   6.810   0.8258   0.01160   0.00720  -0.0049  0.4673  0.7557
   6.820   0.8265   0.01161   0.00722  -0.0049  0.4671  0.7558
   6.830   0.8273   0.01162   0.00723  -0.0049  0.4669  0.7558
   6.840   0.8280   0.01163   0.00724  -0.0048  0.4667  0.7559
   6.850   0.8289   0.01164   0.00724  -0.0048  0.4667  0.7559
   6.860   0.8297   0.01165   0.00726  -0.0048  0.4665  0.7560
   6.870   0.8306   0.01166   0.00726  -0.0048  0.4664  0.7560
   6.880   0.8313   0.01167   0.00728  -0.0047  0.4663  0.7561
   6.890   0.8313   0.01170   0.00730  -0.0046  0.4655  0.7561
   6.900   0.8324   0.01171   0.00731  -0.0046  0.4657  0.7562
   6.910   0.8332   0.01172   0.00732  -0.0046  0.4656  0.7562
   6.920   0.8337   0.01173   0.00733  -0.0045  0.4653  0.7563
   6.930   0.8346   0.01174   0.00734  -0.0045  0.4653  0.7563
   6.940   0.8357   0.01174   0.00734  -0.0045  0.4654  0.7564
   6.950   0.8363   0.01176   0.00736  -0.0045  0.4652  0.7564
   6.960   0.8368   0.01178   0.00737  -0.0044  0.4648  0.7565
   6.970   0.8375   0.01179   0.00739  -0.0043  0.4646  0.7565
   6.980   0.8381   0.01181   0.00740  -0.0043  0.4645  0.7566
   6.990   0.8384   0.01183   0.00742  -0.0042  0.4640  0.7566
   7.000   0.8391   0.01185   0.00743  -0.0041  0.4639  0.7567
   7.010   0.8396   0.01186   0.00745  -0.0041  0.4637  0.7567
   7.020   0.8407   0.01187   0.00746  -0.0041  0.4638  0.7568
   7.030   0.8409   0.01189   0.00748  -0.0040  0.4634  0.7568
   7.040   0.8414   0.01191   0.00750  -0.0039  0.4631  0.7569
   7.050   0.8416   0.01194   0.00752  -0.0038  0.4627  0.7569
   7.060   0.8426   0.01195   0.00753  -0.0038  0.4628  0.7570
   7.070   0.8434   0.01196   0.00754  -0.0038  0.4627  0.7570
   7.100   0.8453   0.01200   0.00758  -0.0036  0.4622  0.7572
   7.110   0.8463   0.01201   0.00759  -0.0036  0.4618  0.7572
   7.120   0.8471   0.01202   0.00760  -0.0036  0.4619  0.7572
   7.130   0.8480   0.01203   0.00761  -0.0036  0.4617  0.7573
   7.140   0.8489   0.01203   0.00762  -0.0036  0.4616  0.7573
   7.150   0.8497   0.01204   0.00763  -0.0036  0.4615  0.7573
   7.180   0.8523   0.01207   0.00765  -0.0035  0.4609  0.7576
   7.190   0.8532   0.01208   0.00766  -0.0035  0.4608  0.7576
   7.200   0.8539   0.01208   0.00767  -0.0035  0.4606  0.7577
   7.210   0.8549   0.01209   0.00768  -0.0035  0.4606  0.7578
   7.220   0.8556   0.01210   0.00769  -0.0034  0.4602  0.7578
   7.230   0.8565   0.01211   0.00770  -0.0034  0.4600  0.7579
   7.240   0.8572   0.01212   0.00771  -0.0034  0.4598  0.7580
   7.250   0.8580   0.01213   0.00773  -0.0033  0.4594  0.7580
   7.260   0.8588   0.01214   0.00773  -0.0033  0.4594  0.7581
   7.270   0.8596   0.01215   0.00775  -0.0033  0.4592  0.7582
   7.280   0.8605   0.01215   0.00775  -0.0033  0.4595  0.7582
   7.290   0.8611   0.01217   0.00777  -0.0032  0.4586  0.7583
   7.300   0.8620   0.01218   0.00778  -0.0032  0.4586  0.7584
   7.310   0.8627   0.01219   0.00779  -0.0032  0.4585  0.7585
   7.320   0.8636   0.01220   0.00780  -0.0032  0.4586  0.7585
   7.330   0.8644   0.01221   0.00781  -0.0031  0.4584  0.7586
   7.340   0.8650   0.01222   0.00782  -0.0031  0.4580  0.7586
   7.350   0.8658   0.01223   0.00783  -0.0031  0.4578  0.7587
   7.360   0.8665   0.01224   0.00785  -0.0030  0.4575  0.7588
   7.370   0.8672   0.01226   0.00786  -0.0030  0.4571  0.7588
   7.380   0.8679   0.01227   0.00787  -0.0029  0.4569  0.7589
   7.390   0.8688   0.01228   0.00788  -0.0029  0.4570  0.7589
   7.400   0.8698   0.01228   0.00789  -0.0029  0.4571  0.7590
   7.410   0.8703   0.01230   0.00790  -0.0029  0.4567  0.7591
   7.420   0.8711   0.01231   0.00792  -0.0028  0.4565  0.7591
   7.430   0.8719   0.01232   0.00793  -0.0028  0.4565  0.7592
   7.440   0.8720   0.01235   0.00795  -0.0027  0.4555  0.7593
   7.450   0.8731   0.01235   0.00796  -0.0027  0.4558  0.7593
   7.460   0.8739   0.01236   0.00797  -0.0027  0.4557  0.7594
   7.470   0.8740   0.01239   0.00799  -0.0025  0.4548  0.7594
   7.480   0.8750   0.01240   0.00800  -0.0026  0.4550  0.7595
   7.490   0.8757   0.01241   0.00801  -0.0025  0.4548  0.7595
   7.500   0.8766   0.01241   0.00802  -0.0025  0.4549  0.7596
   7.510   0.8766   0.01245   0.00805  -0.0024  0.4541  0.7597
   7.520   0.8777   0.01245   0.00805  -0.0024  0.4542  0.7597
   7.530   0.8783   0.01246   0.00807  -0.0023  0.4541  0.7598
   7.540   0.8786   0.01249   0.00809  -0.0022  0.4535  0.7598
   7.550   0.8800   0.01248   0.00809  -0.0023  0.4540  0.7599
   7.560   0.8806   0.01250   0.00810  -0.0022  0.4537  0.7600
   7.570   0.8809   0.01252   0.00813  -0.0021  0.4533  0.7600
   7.580   0.8814   0.01254   0.00814  -0.0021  0.4531  0.7601
   7.590   0.8825   0.01254   0.00815  -0.0021  0.4532  0.7601
   7.600   0.8823   0.01258   0.00818  -0.0019  0.4524  0.7602
   7.610   0.8828   0.01260   0.00820  -0.0018  0.4521  0.7603
   7.620   0.8844   0.01259   0.00819  -0.0019  0.4526  0.7603
   7.630   0.8841   0.01263   0.00823  -0.0017  0.4518  0.7604
   7.640   0.8850   0.01264   0.00824  -0.0017  0.4518  0.7604
   7.650   0.8860   0.01264   0.00824  -0.0017  0.4519  0.7605
   7.670   0.8870   0.01268   0.00828  -0.0016  0.4512  0.7606
   7.680   0.8879   0.01269   0.00829  -0.0016  0.4510  0.7607
   7.690   0.8888   0.01270   0.00830  -0.0016  0.4507  0.7607
   7.700   0.8896   0.01271   0.00831  -0.0015  0.4503  0.7608
   7.710   0.8905   0.01272   0.00832  -0.0015  0.4505  0.7608
   7.720   0.8914   0.01272   0.00833  -0.0015  0.4506  0.7609
   7.730   0.8922   0.01273   0.00834  -0.0015  0.4502  0.7609
   7.740   0.8931   0.01274   0.00835  -0.0015  0.4503  0.7610
   7.750   0.8939   0.01275   0.00836  -0.0015  0.4501  0.7611
   7.760   0.8946   0.01277   0.00837  -0.0014  0.4495  0.7611
   7.770   0.8956   0.01277   0.00838  -0.0014  0.4497  0.7612
   7.780   0.8963   0.01278   0.00839  -0.0014  0.4492  0.7612
   7.790   0.8970   0.01280   0.00841  -0.0014  0.4484  0.7613
   7.800   0.8979   0.01281   0.00842  -0.0014  0.4486  0.7614
   7.810   0.8986   0.01282   0.00843  -0.0013  0.4487  0.7614
   7.820   0.8994   0.01283   0.00844  -0.0013  0.4482  0.7615
   7.830   0.9002   0.01284   0.00845  -0.0013  0.4482  0.7615
   7.840   0.9010   0.01285   0.00846  -0.0013  0.4478  0.7616
   7.850   0.9019   0.01286   0.00847  -0.0012  0.4482  0.7617
   7.860   0.9001   0.01295   0.00855  -0.0008  0.4443  0.7617
   7.870   0.9032   0.01289   0.00850  -0.0012  0.4473  0.7618
   7.880   0.9040   0.01290   0.00851  -0.0011  0.4472  0.7618
   7.890   0.9045   0.01292   0.00853  -0.0011  0.4467  0.7619
   7.900   0.9055   0.01293   0.00854  -0.0011  0.4467  0.7619
   7.910   0.9060   0.01294   0.00856  -0.0010  0.4464  0.7620
   7.920   0.9066   0.01296   0.00857  -0.0010  0.4460  0.7621
   7.930   0.9074   0.01298   0.00859  -0.0009  0.4458  0.7621
   7.940   0.9081   0.01299   0.00860  -0.0009  0.4456  0.7622
   7.950   0.9086   0.01301   0.00862  -0.0008  0.4452  0.7622
   7.960   0.9090   0.01303   0.00864  -0.0007  0.4448  0.7623
   7.970   0.9094   0.01306   0.00866  -0.0007  0.4443  0.7624
   7.980   0.9105   0.01306   0.00866  -0.0007  0.4445  0.7624
   7.990   0.9113   0.01307   0.00868  -0.0007  0.4445  0.7625
   8.000   0.9117   0.01309   0.00870  -0.0006  0.4440  0.7626
   8.010   0.9126   0.01310   0.00871  -0.0006  0.4440  0.7626
   8.020   0.9123   0.01314   0.00875  -0.0004  0.4430  0.7627
   8.030   0.9132   0.01315   0.00875  -0.0004  0.4430  0.7627
   8.040   0.9127   0.01321   0.00880  -0.0001  0.4419  0.7628
   8.050   0.9150   0.01317   0.00877  -0.0004  0.4431  0.7628
   8.060   0.9156   0.01319   0.00879  -0.0003  0.4428  0.7629
   8.070   0.9155   0.01323   0.00882  -0.0001  0.4422  0.7630
   8.080   0.9161   0.01324   0.00884  -0.0001  0.4419  0.7630
   8.090   0.9166   0.01326   0.00886   0.0000  0.4416  0.7631
   8.100   0.9174   0.01328   0.00887   0.0000  0.4416  0.7632
   8.110   0.9174   0.01331   0.00890   0.0002  0.4410  0.7632
   8.120   0.9183   0.01332   0.00891   0.0002  0.4411  0.7633
   8.130   0.9186   0.01334   0.00894   0.0003  0.4406  0.7633
   8.140   0.9196   0.01335   0.00894   0.0003  0.4407  0.7634
   8.150   0.9202   0.01337   0.00896   0.0003  0.4402  0.7634
   8.160   0.9211   0.01337   0.00897   0.0003  0.4402  0.7635
   8.170   0.9196   0.01346   0.00903   0.0007  0.4345  0.7636
   8.180   0.9227   0.01340   0.00899   0.0004  0.4392  0.7636
   8.190   0.9237   0.01340   0.00900   0.0003  0.4399  0.7637
   8.200   0.9243   0.01342   0.00902   0.0004  0.4386  0.7637
   8.210   0.9253   0.01342   0.00902   0.0004  0.4393  0.7638
   8.220   0.9261   0.01344   0.00903   0.0004  0.4386  0.7638
   8.230   0.9269   0.01345   0.00904   0.0004  0.4384  0.7639
   8.240   0.9275   0.01347   0.00906   0.0005  0.4375  0.7640
   8.250   0.9284   0.01347   0.00907   0.0005  0.4379  0.7640
   8.260   0.9293   0.01348   0.00908   0.0005  0.4378  0.7641
   8.270   0.9301   0.01349   0.00909   0.0005  0.4377  0.7641
   8.280   0.9308   0.01351   0.00911   0.0006  0.4372  0.7642
   8.290   0.9316   0.01352   0.00912   0.0006  0.4370  0.7642
   8.300   0.9322   0.01354   0.00913   0.0006  0.4365  0.7643
   8.310   0.9333   0.01354   0.00914   0.0006  0.4370  0.7644
   8.320   0.9340   0.01355   0.00915   0.0006  0.4364  0.7644
   8.330   0.9345   0.01357   0.00917   0.0007  0.4359  0.7645
   8.340   0.9355   0.01358   0.00918   0.0007  0.4361  0.7645
   8.350   0.9351   0.01363   0.00922   0.0009  0.4342  0.7646
   8.360   0.9367   0.01361   0.00921   0.0008  0.4351  0.7646
   8.370   0.9368   0.01365   0.00924   0.0009  0.4341  0.7647
   8.380   0.9377   0.01365   0.00925   0.0009  0.4342  0.7648
   8.390   0.9379   0.01368   0.00927   0.0011  0.4334  0.7648
   8.400   0.9396   0.01367   0.00926   0.0009  0.4343  0.7649
   8.410   0.9392   0.01372   0.00930   0.0011  0.4330  0.7650
   8.420   0.9399   0.01373   0.00932   0.0012  0.4328  0.7650
   8.430   0.9413   0.01373   0.00932   0.0011  0.4333  0.7651
   8.440   0.9409   0.01377   0.00936   0.0013  0.4321  0.7651
   8.450   0.9420   0.01378   0.00936   0.0013  0.4323  0.7652
   8.460   0.9423   0.01380   0.00939   0.0014  0.4319  0.7653
   8.470   0.9435   0.01380   0.00939   0.0013  0.4322  0.7653
   8.480   0.9445   0.01381   0.00940   0.0013  0.4322  0.7654
   8.490   0.9434   0.01388   0.00946   0.0017  0.4308  0.7654
   8.500   0.9404   0.01402   0.00957   0.0023  0.4246  0.7655
   8.510   0.9455   0.01389   0.00947   0.0016  0.4310  0.7656
   8.520   0.9453   0.01393   0.00951   0.0018  0.4305  0.7656
   8.530   0.9446   0.01400   0.00956   0.0020  0.4274  0.7657
   8.540   0.9466   0.01397   0.00954   0.0019  0.4301  0.7657
   8.550   0.9468   0.01400   0.00957   0.0020  0.4292  0.7658
   8.560   0.9477   0.01401   0.00958   0.0020  0.4295  0.7658
   8.570   0.9484   0.01402   0.00959   0.0020  0.4291  0.7659
   8.580   0.9485   0.01406   0.00962   0.0022  0.4267  0.7659
   8.590   0.9501   0.01404   0.00962   0.0021  0.4284  0.7660
   8.600   0.9506   0.01406   0.00964   0.0021  0.4278  0.7660
   8.610   0.9516   0.01407   0.00964   0.0021  0.4283  0.7661
   8.620   0.9522   0.01409   0.00966   0.0022  0.4276  0.7661
   8.630   0.9531   0.01410   0.00967   0.0022  0.4276  0.7662
   8.640   0.9532   0.01413   0.00970   0.0023  0.4262  0.7662
   8.650   0.9543   0.01413   0.00970   0.0023  0.4266  0.7663
   8.660   0.9545   0.01416   0.00973   0.0024  0.4256  0.7663
   8.670   0.9553   0.01418   0.00975   0.0024  0.4253  0.7664
   8.680   0.9561   0.01419   0.00976   0.0024  0.4252  0.7664
   8.690   0.9567   0.01421   0.00977   0.0025  0.4249  0.7665
   8.700   0.9512   0.01443   0.00995   0.0035  0.4181  0.7666
   8.710   0.9583   0.01423   0.00980   0.0025  0.4247  0.7666
   8.720   0.9590   0.01425   0.00982   0.0025  0.4244  0.7666
   8.730   0.9596   0.01427   0.00983   0.0026  0.4241  0.7667
   8.740   0.9603   0.01428   0.00985   0.0026  0.4240  0.7667
   8.750   0.9611   0.01429   0.00986   0.0026  0.4238  0.7668
   8.760   0.9615   0.01432   0.00988   0.0027  0.4233  0.7668
   8.770   0.9619   0.01434   0.00991   0.0028  0.4229  0.7669
   8.780   0.9621   0.01438   0.00993   0.0029  0.4221  0.7669
   8.790   0.9631   0.01438   0.00994   0.0029  0.4222  0.7670
   8.800   0.9634   0.01441   0.00997   0.0030  0.4217  0.7670
   8.810   0.9641   0.01442   0.00998   0.0030  0.4216  0.7671
   8.820   0.9638   0.01448   0.01002   0.0032  0.4205  0.7671
   8.830   0.9655   0.01446   0.01001   0.0031  0.4212  0.7671
   8.860   0.9664   0.01454   0.01009   0.0034  0.4198  0.7674
   8.870   0.9667   0.01456   0.01011   0.0035  0.4195  0.7675
   8.880   0.9664   0.01461   0.01015   0.0037  0.4172  0.7675
   8.890   0.9675   0.01461   0.01016   0.0037  0.4182  0.7677
   8.900   0.9684   0.01462   0.01017   0.0037  0.4188  0.7677
   8.910   0.9692   0.01463   0.01018   0.0037  0.4181  0.7678
   8.920   0.9701   0.01464   0.01019   0.0037  0.4179  0.7678
   8.930   0.9704   0.01467   0.01021   0.0038  0.4165  0.7679
   8.940   0.9714   0.01467   0.01022   0.0038  0.4170  0.7680
   8.950   0.9722   0.01468   0.01023   0.0038  0.4170  0.7680
   8.970   0.9733   0.01472   0.01027   0.0039  0.4157  0.7682
   8.980   0.9726   0.01478   0.01032   0.0042  0.4133  0.7683
   8.990   0.9729   0.01481   0.01035   0.0043  0.4125  0.7684
   9.000   0.9753   0.01477   0.01032   0.0040  0.4147  0.7684
   9.010   0.9746   0.01483   0.01037   0.0043  0.4125  0.7685
   9.020   0.9770   0.01479   0.01034   0.0040  0.4147  0.7685
   9.030   0.9768   0.01483   0.01038   0.0042  0.4132  0.7686
   9.040   0.9779   0.01483   0.01038   0.0042  0.4135  0.7686
   9.050   0.9775   0.01489   0.01043   0.0044  0.4120  0.7687
   9.060   0.9790   0.01487   0.01042   0.0043  0.4128  0.7688
   9.070   0.9785   0.01493   0.01047   0.0045  0.4114  0.7689
   9.080   0.9807   0.01489   0.01044   0.0043  0.4127  0.7689
   9.090   0.9795   0.01497   0.01051   0.0047  0.4109  0.7690
   9.100   0.9813   0.01494   0.01049   0.0045  0.4117  0.7691
   9.110   0.9819   0.01497   0.01052   0.0046  0.4114  0.7691
   9.120   0.9823   0.01499   0.01054   0.0047  0.4110  0.7692
   9.130   0.9815   0.01506   0.01060   0.0049  0.4097  0.7693
   9.140   0.9833   0.01503   0.01058   0.0048  0.4105  0.7693
   9.150   0.9821   0.01511   0.01065   0.0051  0.4090  0.7695
   9.160   0.9827   0.01513   0.01067   0.0052  0.4089  0.7694
   9.170   0.9827   0.01517   0.01070   0.0053  0.4081  0.7696
   9.180   0.9814   0.01526   0.01078   0.0056  0.4041  0.7696
   9.190   0.9797   0.01536   0.01086   0.0061  0.4010  0.7697
   9.200   0.9846   0.01522   0.01076   0.0054  0.4067  0.7697
   9.210   0.9855   0.01523   0.01077   0.0054  0.4069  0.7698
   9.220   0.9861   0.01525   0.01079   0.0055  0.4064  0.7699
   9.230   0.9870   0.01526   0.01080   0.0055  0.4066  0.7699
   9.240   0.9873   0.01529   0.01083   0.0056  0.4057  0.7700
   9.250   0.9882   0.01530   0.01083   0.0056  0.4057  0.7700
   9.260   0.9889   0.01531   0.01085   0.0056  0.4055  0.7701
   9.270   0.9890   0.01535   0.01089   0.0057  0.4043  0.7702
   9.280   0.9868   0.01547   0.01098   0.0062  0.4006  0.7702
   9.290   0.9904   0.01538   0.01092   0.0058  0.4040  0.7703
   9.300   0.9911   0.01539   0.01093   0.0058  0.4038  0.7704
   9.310   0.9919   0.01541   0.01095   0.0059  0.4037  0.7704
   9.320   0.9882   0.01558   0.01108   0.0066  0.3988  0.7706
   9.330   0.9926   0.01547   0.01100   0.0060  0.4023  0.7706
   9.340   0.9921   0.01552   0.01105   0.0062  0.4010  0.7706
