  
       XFOIL         Version 6.94
  
 Calculated polar for: 1080                                            
  
 1 1 Reynolds number fixed          Mach number fixed         
  
 xtrf =   1.000 (top)        1.000 (bottom)  
 Mach =   0.000     Re =     2.000 e 6     Ncrit =   9.000
  
  alpha     CL        CD       CDp       CM    Top_Xtr Bot_Xtr
 ------- -------- --------- --------- -------- ------- -------
   6.000   1.2135   0.00930   0.00412  -0.1101  0.3738  0.5214
   6.010   1.2141   0.00931   0.00413  -0.1100  0.3734  0.5215
   6.020   1.2150   0.00932   0.00413  -0.1100  0.3733  0.5216
   6.030   1.2152   0.00933   0.00415  -0.1098  0.3725  0.5218
   6.040   1.2159   0.00934   0.00415  -0.1097  0.3722  0.5219
   6.050   1.2163   0.00935   0.00416  -0.1096  0.3717  0.5220
   6.060   1.2171   0.00936   0.00417  -0.1096  0.3716  0.5222
   6.070   1.2174   0.00937   0.00418  -0.1094  0.3709  0.5223
   6.080   1.2179   0.00938   0.00419  -0.1093  0.3706  0.5225
   6.090   1.2185   0.00939   0.00419  -0.1092  0.3704  0.5226
   6.100   1.2188   0.00941   0.00420  -0.1091  0.3699  0.5227
   6.110   1.2194   0.00942   0.00421  -0.1090  0.3696  0.5229
   6.120   1.2197   0.00943   0.00422  -0.1088  0.3691  0.5230
   6.130   1.2202   0.00944   0.00423  -0.1087  0.3687  0.5232
   6.140   1.2210   0.00945   0.00424  -0.1087  0.3685  0.5232
   6.150   1.2217   0.00945   0.00424  -0.1086  0.3681  0.5233
   6.190   1.2245   0.00948   0.00427  -0.1083  0.3668  0.5241
   6.200   1.2253   0.00949   0.00428  -0.1082  0.3665  0.5241
   6.210   1.2259   0.00949   0.00428  -0.1081  0.3660  0.5243
   6.220   1.2265   0.00950   0.00429  -0.1081  0.3656  0.5245
   6.230   1.2273   0.00951   0.00430  -0.1080  0.3654  0.5248
   6.240   1.2279   0.00952   0.00431  -0.1079  0.3649  0.5249
   6.250   1.2286   0.00952   0.00431  -0.1078  0.3647  0.5251
   6.260   1.2292   0.00953   0.00432  -0.1078  0.3643  0.5252
   6.270   1.2297   0.00954   0.00433  -0.1076  0.3637  0.5254
   6.280   1.2304   0.00955   0.00434  -0.1076  0.3634  0.5255
   6.290   1.2310   0.00956   0.00435  -0.1075  0.3630  0.5256
   6.300   1.2315   0.00957   0.00436  -0.1074  0.3626  0.5258
   6.310   1.2322   0.00958   0.00437  -0.1073  0.3623  0.5260
   6.320   1.2328   0.00959   0.00438  -0.1072  0.3620  0.5262
   6.330   1.2333   0.00960   0.00439  -0.1071  0.3615  0.5263
   6.340   1.2336   0.00962   0.00440  -0.1070  0.3609  0.5265
   6.350   1.2344   0.00963   0.00441  -0.1069  0.3608  0.5267
   6.360   1.2349   0.00964   0.00442  -0.1068  0.3605  0.5267
   6.370   1.2352   0.00966   0.00443  -0.1067  0.3599  0.5270
   6.380   1.2357   0.00967   0.00444  -0.1065  0.3595  0.5271
   6.390   1.2363   0.00968   0.00445  -0.1065  0.3593  0.5272
   6.400   1.2367   0.00970   0.00447  -0.1063  0.3589  0.5274
   6.410   1.2372   0.00971   0.00448  -0.1062  0.3586  0.5276
   6.420   1.2375   0.00973   0.00449  -0.1061  0.3581  0.5277
   6.430   1.2385   0.00973   0.00450  -0.1061  0.3581  0.5280
   6.440   1.2391   0.00974   0.00451  -0.1060  0.3577  0.5281
   6.450   1.2398   0.00975   0.00452  -0.1059  0.3573  0.5283
   6.460   1.2405   0.00976   0.00452  -0.1058  0.3571  0.5284
   6.470   1.2412   0.00976   0.00453  -0.1058  0.3567  0.5286
   6.480   1.2420   0.00977   0.00454  -0.1057  0.3564  0.5287
   6.490   1.2428   0.00978   0.00455  -0.1057  0.3563  0.5289
   6.500   1.2433   0.00979   0.00456  -0.1056  0.3558  0.5291
   6.510   1.2441   0.00980   0.00457  -0.1055  0.3556  0.5293
   6.520   1.2449   0.00981   0.00458  -0.1054  0.3554  0.5295
   6.530   1.2454   0.00982   0.00459  -0.1053  0.3548  0.5296
   6.540   1.2459   0.00983   0.00460  -0.1052  0.3543  0.5298
   6.550   1.2465   0.00985   0.00461  -0.1051  0.3539  0.5300
   6.560   1.2473   0.00985   0.00462  -0.1051  0.3538  0.5302
   6.570   1.2479   0.00986   0.00463  -0.1050  0.3534  0.5304
   6.580   1.2484   0.00988   0.00464  -0.1049  0.3529  0.5305
   6.590   1.2489   0.00989   0.00465  -0.1048  0.3525  0.5308
   6.600   1.2499   0.00989   0.00466  -0.1048  0.3526  0.5309
   6.610   1.2503   0.00991   0.00467  -0.1046  0.3520  0.5310
   6.620   1.2509   0.00992   0.00468  -0.1046  0.3517  0.5312
   6.630   1.2514   0.00994   0.00469  -0.1045  0.3513  0.5314
   6.640   1.2521   0.00995   0.00470  -0.1044  0.3511  0.5316
   6.650   1.2525   0.00996   0.00472  -0.1043  0.3507  0.5317
   6.660   1.2531   0.00998   0.00473  -0.1042  0.3504  0.5319
   6.670   1.2538   0.00998   0.00474  -0.1041  0.3502  0.5321
   6.680   1.2541   0.01000   0.00475  -0.1040  0.3497  0.5323
   6.690   1.2546   0.01002   0.00477  -0.1039  0.3493  0.5324
   6.700   1.2549   0.01004   0.00478  -0.1037  0.3489  0.5325
   6.710   1.2554   0.01005   0.00479  -0.1036  0.3486  0.5327
   6.720   1.2559   0.01007   0.00481  -0.1035  0.3483  0.5330
   6.730   1.2567   0.01007   0.00482  -0.1035  0.3482  0.5330
   6.740   1.2568   0.01010   0.00484  -0.1033  0.3475  0.5332
   6.750   1.2577   0.01011   0.00484  -0.1033  0.3475  0.5334
   6.760   1.2583   0.01012   0.00485  -0.1032  0.3472  0.5336
   6.770   1.2592   0.01012   0.00486  -0.1031  0.3472  0.5337
   6.780   1.2598   0.01014   0.00487  -0.1031  0.3467  0.5338
   6.790   1.2605   0.01015   0.00488  -0.1030  0.3463  0.5341
   6.800   1.2611   0.01016   0.00489  -0.1029  0.3459  0.5342
   6.810   1.2621   0.01016   0.00490  -0.1029  0.3460  0.5343
