  
       XFOIL         Version 6.94
  
 Calculated polar for: 1080                                            
  
 1 1 Reynolds number fixed          Mach number fixed         
  
 xtrf =   1.000 (top)        1.000 (bottom)  
 Mach =   0.000     Re =     2.000 e 6     Ncrit =   9.000
  
  alpha     CL        CD       CDp       CM    Top_Xtr Bot_Xtr
 ------- -------- --------- --------- -------- ------- -------
   6.000   1.3132   0.00923   0.00511  -0.1291  0.5729  0.7821
   6.010   1.3138   0.00924   0.00512  -0.1291  0.5729  0.7821
   6.020   1.3147   0.00924   0.00512  -0.1291  0.5728  0.7822
   6.030   1.3154   0.00925   0.00513  -0.1290  0.5728  0.7822
   6.040   1.3158   0.00925   0.00514  -0.1289  0.5727  0.7822
   6.050   1.3167   0.00926   0.00514  -0.1289  0.5727  0.7822
   6.060   1.3165   0.00927   0.00516  -0.1287  0.5725  0.7822
   6.090   1.3183   0.00928   0.00517  -0.1285  0.5723  0.7823
   6.100   1.3203   0.00928   0.00517  -0.1287  0.5724  0.7823
   6.110   1.3202   0.00929   0.00518  -0.1285  0.5723  0.7824
   6.120   1.3205   0.00929   0.00519  -0.1283  0.5722  0.7824
   6.130   1.3216   0.00930   0.00519  -0.1284  0.5722  0.7824
   6.140   1.3222   0.00930   0.00520  -0.1283  0.5721  0.7825
   6.150   1.3228   0.00930   0.00521  -0.1282  0.5720  0.7825
   6.160   1.3241   0.00931   0.00521  -0.1283  0.5721  0.7825
   6.170   1.3241   0.00931   0.00522  -0.1281  0.5719  0.7826
   6.180   1.3254   0.00932   0.00523  -0.1282  0.5719  0.7826
   6.190   1.3254   0.00932   0.00523  -0.1280  0.5718  0.7827
   6.200   1.3261   0.00933   0.00524  -0.1280  0.5717  0.7827
   6.210   1.3254   0.00934   0.00525  -0.1276  0.5715  0.7827
   6.220   1.3274   0.00934   0.00525  -0.1278  0.5716  0.7828
   6.230   1.3279   0.00934   0.00526  -0.1277  0.5715  0.7828
   6.240   1.3280   0.00935   0.00527  -0.1276  0.5714  0.7828
   6.250   1.3293   0.00935   0.00527  -0.1276  0.5714  0.7828
   6.260   1.3302   0.00936   0.00528  -0.1276  0.5714  0.7829
   6.270   1.3302   0.00936   0.00528  -0.1275  0.5712  0.7829
   6.280   1.3293   0.00937   0.00530  -0.1271  0.5708  0.7830
   6.290   1.3320   0.00937   0.00529  -0.1274  0.5711  0.7830
   6.300   1.3324   0.00938   0.00530  -0.1273  0.5710  0.7830
   6.310   1.3331   0.00938   0.00531  -0.1273  0.5709  0.7830
   6.320   1.3339   0.00939   0.00531  -0.1272  0.5709  0.7830
   6.330   1.3344   0.00939   0.00532  -0.1272  0.5708  0.7831
   6.340   1.3352   0.00940   0.00532  -0.1271  0.5707  0.7831
   6.350   1.3360   0.00940   0.00533  -0.1271  0.5707  0.7831
   6.360   1.3365   0.00941   0.00534  -0.1270  0.5706  0.7831
   6.370   1.3374   0.00941   0.00534  -0.1270  0.5705  0.7832
   6.380   1.3377   0.00942   0.00535  -0.1269  0.5704  0.7832
   6.390   1.3382   0.00942   0.00535  -0.1268  0.5703  0.7832
   6.400   1.3395   0.00942   0.00536  -0.1269  0.5703  0.7833
   6.410   1.3378   0.00944   0.00537  -0.1263  0.5697  0.7833
   6.420   1.3403   0.00944   0.00537  -0.1266  0.5700  0.7833
   6.430   1.3412   0.00944   0.00538  -0.1267  0.5700  0.7834
   6.440   1.3417   0.00945   0.00538  -0.1266  0.5699  0.7834
   6.450   1.3401   0.00946   0.00540  -0.1260  0.5693  0.7834
   6.460   1.3430   0.00946   0.00539  -0.1264  0.5697  0.7834
   6.470   1.3416   0.00947   0.00541  -0.1260  0.5692  0.7835
   6.480   1.3445   0.00947   0.00540  -0.1264  0.5696  0.7835
   6.490   1.3450   0.00947   0.00541  -0.1263  0.5694  0.7835
   6.500   1.3458   0.00948   0.00542  -0.1263  0.5694  0.7835
   6.510   1.3465   0.00948   0.00542  -0.1262  0.5693  0.7836
   6.520   1.3433   0.00951   0.00544  -0.1254  0.5685  0.7836
   6.530   1.3388   0.00955   0.00548  -0.1243  0.5672  0.7837
   6.540   1.3471   0.00951   0.00545  -0.1258  0.5688  0.7837
   6.550   1.3485   0.00951   0.00545  -0.1259  0.5688  0.7837
   6.560   1.3454   0.00954   0.00547  -0.1251  0.5680  0.7837
   6.570   1.3503   0.00952   0.00546  -0.1259  0.5688  0.7837
   6.580   1.3480   0.00954   0.00548  -0.1252  0.5681  0.7838
   6.590   1.3492   0.00954   0.00548  -0.1253  0.5681  0.7838
   6.600   1.3519   0.00954   0.00548  -0.1256  0.5685  0.7838
   6.610   1.3395   0.00967   0.00558  -0.1230  0.5645  0.7840
   6.620   1.3534   0.00955   0.00549  -0.1255  0.5683  0.7839
   6.630   1.3544   0.00955   0.00550  -0.1255  0.5683  0.7839
   6.640   1.3546   0.00956   0.00551  -0.1254  0.5681  0.7839
   6.650   1.3518   0.00959   0.00553  -0.1247  0.5672  0.7840
   6.660   1.3563   0.00957   0.00552  -0.1254  0.5680  0.7839
   6.670   1.3570   0.00958   0.00553  -0.1253  0.5680  0.7840
   6.680   1.3574   0.00959   0.00553  -0.1252  0.5678  0.7840
   6.690   1.3585   0.00959   0.00554  -0.1252  0.5678  0.7840
   6.700   1.3592   0.00960   0.00555  -0.1252  0.5677  0.7840
   6.710   1.3597   0.00961   0.00555  -0.1251  0.5676  0.7841
   6.720   1.3582   0.00963   0.00557  -0.1246  0.5669  0.7841
   6.730   1.3591   0.00964   0.00557  -0.1246  0.5668  0.7841
   6.740   1.3499   0.00975   0.00568  -0.1227  0.5640  0.7843
   6.750   1.3615   0.00964   0.00558  -0.1247  0.5669  0.7842
   6.760   1.3636   0.00964   0.00558  -0.1250  0.5673  0.7842
   6.770   1.3635   0.00965   0.00559  -0.1248  0.5669  0.7842
   6.780   1.3508   0.00980   0.00574  -0.1221  0.5634  0.7844
   6.790   1.3661   0.00965   0.00560  -0.1249  0.5670  0.7842
   6.800   1.3659   0.00967   0.00561  -0.1247  0.5665  0.7843
   6.810   1.3642   0.00971   0.00563  -0.1242  0.5649  0.7843
   6.820   1.3676   0.00969   0.00561  -0.1247  0.5658  0.7843
   6.830   1.3645   0.00974   0.00566  -0.1239  0.5647  0.7844
   6.840   1.3703   0.00969   0.00563  -0.1248  0.5665  0.7843
   6.850   1.3714   0.00969   0.00563  -0.1249  0.5666  0.7844
   6.860   1.3648   0.00978   0.00571  -0.1234  0.5644  0.7845
   6.870   1.3673   0.00977   0.00570  -0.1237  0.5646  0.7845
   6.880   1.3745   0.00971   0.00563  -0.1249  0.5654  0.7844
   6.890   1.3751   0.00971   0.00565  -0.1249  0.5659  0.7844
   6.900   1.3564   0.00992   0.00588  -0.1211  0.5618  0.7847
   6.910   1.3773   0.00972   0.00566  -0.1249  0.5660  0.7845
   6.920   1.3626   0.00989   0.00584  -0.1219  0.5628  0.7847
   6.930   1.3786   0.00975   0.00567  -0.1248  0.5650  0.7845
   6.940   1.3755   0.00979   0.00572  -0.1240  0.5646  0.7846
   6.950   1.3817   0.00974   0.00567  -0.1251  0.5656  0.7845
   6.960   1.3734   0.00984   0.00578  -0.1233  0.5641  0.7847
   6.970   1.3684   0.00990   0.00586  -0.1221  0.5630  0.7847
   6.980   1.3750   0.00985   0.00580  -0.1232  0.5640  0.7847
   6.990   1.3769   0.00985   0.00579  -0.1234  0.5641  0.7847
   7.000   1.3662   0.00997   0.00594  -0.1212  0.5617  0.7849
   7.010   1.3883   0.00977   0.00569  -0.1253  0.5651  0.7846
   7.020   1.3809   0.00985   0.00580  -0.1236  0.5643  0.7848
   7.030   1.3686   0.00999   0.00597  -0.1211  0.5616  0.7849
   7.040   1.3646   0.01006   0.00603  -0.1202  0.5601  0.7850
   7.050   1.3879   0.00983   0.00577  -0.1245  0.5647  0.7848
   7.060   1.3686   0.01004   0.00602  -0.1206  0.5607  0.7850
   7.070   1.3859   0.00987   0.00583  -0.1237  0.5642  0.7849
   7.080   1.3916   0.00983   0.00578  -0.1246  0.5647  0.7848
   7.090   1.3864   0.00990   0.00586  -0.1235  0.5640  0.7849
   7.100   1.3866   0.00991   0.00588  -0.1233  0.5639  0.7849
   7.110   1.3864   0.00993   0.00589  -0.1231  0.5637  0.7850
   7.120   1.3932   0.00988   0.00583  -0.1242  0.5645  0.7849
   7.130   1.3796   0.01003   0.00602  -0.1215  0.5618  0.7851
   7.140   1.3714   0.01015   0.00613  -0.1197  0.5591  0.7852
   7.150   1.3880   0.00997   0.00595  -0.1227  0.5632  0.7851
   7.160   1.3767   0.01012   0.00610  -0.1204  0.5601  0.7852
   7.170   1.3800   0.01009   0.00608  -0.1208  0.5608  0.7852
   7.180   1.3866   0.01003   0.00602  -0.1219  0.5623  0.7852
   7.190   1.3728   0.01023   0.00621  -0.1191  0.5579  0.7853
   7.200   1.3944   0.00998   0.00596  -0.1230  0.5634  0.7852
   7.210   1.3841   0.01011   0.00611  -0.1209  0.5608  0.7853
   7.220   1.3846   0.01012   0.00612  -0.1208  0.5607  0.7853
   7.230   1.3925   0.01005   0.00604  -0.1222  0.5624  0.7853
   7.240   1.4008   0.00998   0.00596  -0.1236  0.5638  0.7852
   7.250   1.3854   0.01016   0.00616  -0.1205  0.5600  0.7854
   7.260   1.3850   0.01019   0.00619  -0.1202  0.5596  0.7854
   7.270   1.3894   0.01015   0.00615  -0.1209  0.5606  0.7854
   7.280   1.3835   0.01025   0.00624  -0.1196  0.5585  0.7855
   7.290   1.4014   0.01005   0.00604  -0.1228  0.5630  0.7853
   7.300   1.3886   0.01021   0.00621  -0.1202  0.5595  0.7855
   7.310   1.3928   0.01018   0.00618  -0.1208  0.5604  0.7855
   7.320   1.3946   0.01017   0.00618  -0.1210  0.5606  0.7855
   7.330   1.4047   0.01007   0.00607  -0.1227  0.5628  0.7854
   7.340   1.3941   0.01021   0.00622  -0.1205  0.5599  0.7856
   7.350   1.3912   0.01027   0.00627  -0.1198  0.5588  0.7856
   7.360   1.3924   0.01028   0.00628  -0.1199  0.5589  0.7856
   7.370   1.3898   0.01034   0.00633  -0.1192  0.5577  0.7857
   7.380   1.3929   0.01031   0.00631  -0.1196  0.5584  0.7857
   7.390   1.3973   0.01026   0.00627  -0.1203  0.5595  0.7857
   7.400   1.4031   0.01021   0.00622  -0.1212  0.5608  0.7857
   7.410   1.4010   0.01025   0.00626  -0.1206  0.5599  0.7857
   7.420   1.3974   0.01032   0.00633  -0.1198  0.5586  0.7858
   7.430   1.4128   0.01015   0.00616  -0.1225  0.5624  0.7856
   7.440   1.4109   0.01018   0.00620  -0.1220  0.5617  0.7857
   7.450   1.3975   0.01039   0.00638  -0.1193  0.5577  0.7858
   7.460   1.3989   0.01038   0.00638  -0.1194  0.5578  0.7859
   7.470   1.4038   0.01033   0.00634  -0.1201  0.5590  0.7859
   7.480   1.4074   0.01029   0.00631  -0.1206  0.5598  0.7858
   7.490   1.4038   0.01037   0.00638  -0.1198  0.5585  0.7859
   7.500   1.4133   0.01026   0.00628  -0.1214  0.5608  0.7859
   7.510   1.4156   0.01024   0.00627  -0.1217  0.5611  0.7859
   7.520   1.4101   0.01033   0.00635  -0.1204  0.5594  0.7859
   7.530   1.4086   0.01037   0.00639  -0.1200  0.5587  0.7860
   7.540   1.4068   0.01043   0.00643  -0.1195  0.5578  0.7860
   7.550   1.4076   0.01043   0.00644  -0.1195  0.5578  0.7861
   7.560   1.4066   0.01048   0.00647  -0.1191  0.5568  0.7861
   7.570   1.4051   0.01053   0.00651  -0.1187  0.5559  0.7861
   7.580   1.4098   0.01046   0.00647  -0.1194  0.5575  0.7861
   7.590   1.4093   0.01050   0.00649  -0.1191  0.5566  0.7862
   7.600   1.4127   0.01046   0.00647  -0.1196  0.5578  0.7862
   7.610   1.4125   0.01048   0.00649  -0.1194  0.5573  0.7862
   7.620   1.4125   0.01051   0.00650  -0.1192  0.5568  0.7862
   7.630   1.4132   0.01052   0.00651  -0.1192  0.5565  0.7862
   7.640   1.4198   0.01043   0.00646  -0.1202  0.5588  0.7862
   7.650   1.4155   0.01053   0.00652  -0.1192  0.5568  0.7863
   7.660   1.4130   0.01059   0.00659  -0.1186  0.5557  0.7863
   7.670   1.4172   0.01054   0.00654  -0.1192  0.5565  0.7863
   7.680   1.4173   0.01056   0.00656  -0.1191  0.5562  0.7864
   7.690   1.4238   0.01047   0.00650  -0.1201  0.5585  0.7863
   7.700   1.4240   0.01049   0.00652  -0.1200  0.5583  0.7863
   7.710   1.4217   0.01055   0.00656  -0.1194  0.5569  0.7864
   7.720   1.4160   0.01067   0.00669  -0.1182  0.5549  0.7865
   7.730   1.4195   0.01063   0.00664  -0.1186  0.5556  0.7865
   7.740   1.4246   0.01057   0.00658  -0.1194  0.5569  0.7865
   7.750   1.4252   0.01058   0.00659  -0.1194  0.5566  0.7865
   7.760   1.4233   0.01064   0.00665  -0.1188  0.5558  0.7865
   7.770   1.4292   0.01055   0.00658  -0.1198  0.5577  0.7865
   7.780   1.4194   0.01075   0.00678  -0.1178  0.5541  0.7866
   7.790   1.4341   0.01051   0.00656  -0.1203  0.5587  0.7865
   7.800   1.4254   0.01069   0.00671  -0.1186  0.5553  0.7866
   7.810   1.4350   0.01054   0.00658  -0.1202  0.5583  0.7866
   7.820   1.4249   0.01074   0.00677  -0.1181  0.5547  0.7867
   7.830   1.4331   0.01062   0.00663  -0.1195  0.5565  0.7867
   7.840   1.4304   0.01069   0.00671  -0.1188  0.5556  0.7867
   7.850   1.4243   0.01082   0.00686  -0.1175  0.5535  0.7868
   7.860   1.4277   0.01079   0.00682  -0.1180  0.5543  0.7868
   7.870   1.4269   0.01082   0.00687  -0.1177  0.5537  0.7868
   7.880   1.4382   0.01065   0.00666  -0.1196  0.5563  0.7868
   7.890   1.4320   0.01078   0.00681  -0.1183  0.5548  0.7868
   7.900   1.4325   0.01079   0.00683  -0.1182  0.5546  0.7869
   7.910   1.4314   0.01083   0.00688  -0.1178  0.5540  0.7869
   7.920   1.4309   0.01087   0.00691  -0.1176  0.5535  0.7869
   7.930   1.4302   0.01090   0.00696  -0.1173  0.5528  0.7870
   7.940   1.4328   0.01088   0.00693  -0.1176  0.5534  0.7870
   7.950   1.4357   0.01085   0.00690  -0.1179  0.5541  0.7870
   7.960   1.4443   0.01072   0.00675  -0.1194  0.5560  0.7869
   7.970   1.4368   0.01088   0.00693  -0.1178  0.5539  0.7870
   7.980   1.4374   0.01089   0.00694  -0.1178  0.5538  0.7871
   7.990   1.4474   0.01074   0.00677  -0.1194  0.5560  0.7870
   8.000   1.4347   0.01099   0.00705  -0.1169  0.5518  0.7872
   8.010   1.4391   0.01093   0.00699  -0.1176  0.5533  0.7872
   8.020   1.4371   0.01099   0.00705  -0.1171  0.5521  0.7872
   8.030   1.4357   0.01104   0.00710  -0.1166  0.5510  0.7873
   8.040   1.4394   0.01100   0.00706  -0.1171  0.5522  0.7873
   8.050   1.4429   0.01095   0.00702  -0.1176  0.5533  0.7872
   8.060   1.4460   0.01092   0.00698  -0.1180  0.5541  0.7872
   8.070   1.4455   0.01095   0.00702  -0.1178  0.5536  0.7873
   8.080   1.4417   0.01105   0.00712  -0.1169  0.5516  0.7874
   8.090   1.4449   0.01101   0.00708  -0.1173  0.5526  0.7873
   8.100   1.4437   0.01106   0.00713  -0.1169  0.5516  0.7874
   8.110   1.4516   0.01094   0.00700  -0.1182  0.5543  0.7874
   8.120   1.4458   0.01107   0.00714  -0.1170  0.5518  0.7874
   8.130   1.4453   0.01110   0.00718  -0.1167  0.5511  0.7875
   8.140   1.4494   0.01105   0.00712  -0.1173  0.5525  0.7875
   8.150   1.4536   0.01099   0.00707  -0.1179  0.5537  0.7875
   8.160   1.4481   0.01112   0.00720  -0.1168  0.5511  0.7875
   8.170   1.4546   0.01102   0.00710  -0.1178  0.5534  0.7875
   8.180   1.4511   0.01111   0.00719  -0.1170  0.5516  0.7876
   8.190   1.4520   0.01112   0.00720  -0.1170  0.5516  0.7876
   8.200   1.4493   0.01120   0.00728  -0.1163  0.5502  0.7877
   8.210   1.4473   0.01128   0.00734  -0.1158  0.5492  0.7877
   8.220   1.4551   0.01114   0.00722  -0.1170  0.5517  0.7877
   8.230   1.4551   0.01116   0.00725  -0.1169  0.5513  0.7877
   8.240   1.4527   0.01124   0.00732  -0.1163  0.5501  0.7878
   8.250   1.4548   0.01122   0.00730  -0.1165  0.5505  0.7878
   8.260   1.4502   0.01135   0.00742  -0.1155  0.5486  0.7878
   8.270   1.4588   0.01119   0.00728  -0.1169  0.5513  0.7878
   8.280   1.4561   0.01127   0.00736  -0.1163  0.5500  0.7879
   8.290   1.4593   0.01123   0.00732  -0.1167  0.5508  0.7879
   8.300   1.4546   0.01136   0.00744  -0.1157  0.5489  0.7879
   8.310   1.4561   0.01136   0.00743  -0.1158  0.5490  0.7880
   8.320   1.4639   0.01121   0.00731  -0.1170  0.5514  0.7879
   8.330   1.4541   0.01146   0.00752  -0.1151  0.5477  0.7880
   8.340   1.4595   0.01136   0.00745  -0.1159  0.5493  0.7880
   8.350   1.4541   0.01152   0.00759  -0.1148  0.5467  0.7881
   8.360   1.4622   0.01136   0.00744  -0.1161  0.5496  0.7880
   8.370   1.4642   0.01134   0.00743  -0.1163  0.5499  0.7881
   8.380   1.4573   0.01153   0.00760  -0.1149  0.5470  0.7882
   8.390   1.4617   0.01146   0.00753  -0.1155  0.5485  0.7882
   8.400   1.4698   0.01130   0.00740  -0.1168  0.5509  0.7881
   8.410   1.4641   0.01146   0.00754  -0.1156  0.5486  0.7882
   8.420   1.4661   0.01144   0.00752  -0.1158  0.5490  0.7882
   8.430   1.4732   0.01130   0.00741  -0.1169  0.5512  0.7882
   8.440   1.4686   0.01144   0.00753  -0.1159  0.5492  0.7882
   8.450   1.4619   0.01163   0.00771  -0.1146  0.5458  0.7883
   8.460   1.4486   0.01202   0.00807  -0.1121  0.5385  0.7885
   8.470   1.4482   0.01206   0.00812  -0.1119  0.5360  0.7885
   8.480   1.4651   0.01164   0.00772  -0.1147  0.5461  0.7884
   8.490   1.4753   0.01142   0.00753  -0.1163  0.5500  0.7883
   8.500   1.4619   0.01178   0.00787  -0.1138  0.5426  0.7885
   8.510   1.4704   0.01160   0.00767  -0.1152  0.5476  0.7884
   8.520   1.4594   0.01191   0.00799  -0.1131  0.5407  0.7886
   8.530   1.4711   0.01164   0.00772  -0.1150  0.5470  0.7885
   8.540   1.4768   0.01153   0.00763  -0.1158  0.5489  0.7885
   8.550   1.4656   0.01184   0.00793  -0.1137  0.5423  0.7886
   8.560   1.4749   0.01164   0.00772  -0.1152  0.5475  0.7886
   8.570   1.4722   0.01173   0.00783  -0.1145  0.5453  0.7886
   8.580   1.4768   0.01165   0.00773  -0.1152  0.5475  0.7886
   8.590   1.4803   0.01159   0.00769  -0.1156  0.5485  0.7886
   8.600   1.4759   0.01173   0.00783  -0.1147  0.5460  0.7887
   8.610   1.4764   0.01175   0.00785  -0.1146  0.5457  0.7887
   8.620   1.4625   0.01215   0.00823  -0.1121  0.5381  0.7889
   8.630   1.4760   0.01182   0.00793  -0.1143  0.5442  0.7888
   8.650   1.4813   0.01174   0.00785  -0.1149  0.5466  0.7888
   8.660   1.4599   0.01237   0.00844  -0.1110  0.5327  0.7890
   8.670   1.4619   0.01235   0.00842  -0.1112  0.5332  0.7890
   8.680   1.4761   0.01197   0.00808  -0.1135  0.5419  0.7889
   8.690   1.4600   0.01248   0.00854  -0.1106  0.5317  0.7891
   8.700   1.4749   0.01207   0.00817  -0.1130  0.5407  0.7890
   8.710   1.4842   0.01185   0.00797  -0.1145  0.5451  0.7890
   8.720   1.4859   0.01184   0.00796  -0.1146  0.5456  0.7890
   8.730   1.4588   0.01266   0.00871  -0.1098  0.5289  0.7893
   8.740   1.4817   0.01202   0.00814  -0.1135  0.5421  0.7891
   8.750   1.4880   0.01188   0.00800  -0.1145  0.5452  0.7891
   8.760   1.4878   0.01192   0.00804  -0.1143  0.5445  0.7891
   8.770   1.4775   0.01223   0.00832  -0.1124  0.5395  0.7892
   8.780   1.4744   0.01236   0.00845  -0.1117  0.5354  0.7893
   8.790   1.4918   0.01191   0.00804  -0.1145  0.5454  0.7891
   8.800   1.4746   0.01242   0.00852  -0.1114  0.5343  0.7893
   8.810   1.4959   0.01186   0.00799  -0.1149  0.5466  0.7892
   8.820   1.4825   0.01226   0.00836  -0.1125  0.5396  0.7893
   8.830   1.4674   0.01275   0.00882  -0.1098  0.5294  0.7895
   8.840   1.4823   0.01233   0.00843  -0.1121  0.5390  0.7894
   8.850   1.4688   0.01278   0.00885  -0.1097  0.5287  0.7895
   8.860   1.4807   0.01245   0.00855  -0.1116  0.5350  0.7895
   8.870   1.4862   0.01232   0.00843  -0.1123  0.5394  0.7894
   8.880   1.4887   0.01228   0.00840  -0.1126  0.5399  0.7895
   8.890   1.4721   0.01283   0.00890  -0.1096  0.5286  0.7896
   8.900   1.4786   0.01266   0.00875  -0.1106  0.5321  0.7896
   8.910   1.4726   0.01289   0.00896  -0.1094  0.5272  0.7897
   8.920   1.4949   0.01224   0.00837  -0.1131  0.5410  0.7895
   8.930   1.4796   0.01273   0.00882  -0.1103  0.5315  0.7897
   8.940   1.4862   0.01256   0.00868  -0.1113  0.5342  0.7897
   8.950   1.4916   0.01243   0.00855  -0.1121  0.5388  0.7896
   8.960   1.4967   0.01232   0.00845  -0.1128  0.5403  0.7896
   8.970   1.4783   0.01292   0.00901  -0.1095  0.5279  0.7898
   8.980   1.4665   0.01336   0.00940  -0.1074  0.5197  0.7899
   8.990   1.4809   0.01291   0.00900  -0.1097  0.5293  0.7899
   9.000   1.4813   0.01294   0.00903  -0.1096  0.5284  0.7899
   9.010   1.4855   0.01284   0.00894  -0.1101  0.5312  0.7899
   9.020   1.4948   0.01258   0.00871  -0.1116  0.5355  0.7898
   9.030   1.4846   0.01294   0.00903  -0.1097  0.5298  0.7899
   9.040   1.4884   0.01286   0.00896  -0.1102  0.5313  0.7899
   9.050   1.4859   0.01297   0.00907  -0.1096  0.5289  0.7900
   9.060   1.4993   0.01259   0.00872  -0.1117  0.5365  0.7899
   9.070   1.4979   0.01267   0.00880  -0.1113  0.5347  0.7900
   9.080   1.4773   0.01338   0.00945  -0.1077  0.5222  0.7902
   9.090   1.4888   0.01303   0.00913  -0.1095  0.5281  0.7901
   9.100   1.4876   0.01311   0.00921  -0.1092  0.5262  0.7901
   9.110   1.4998   0.01275   0.00889  -0.1111  0.5338  0.7901
   9.120   1.4875   0.01319   0.00928  -0.1089  0.5251  0.7902
   9.130   1.5030   0.01272   0.00887  -0.1113  0.5347  0.7901
   9.140   1.4920   0.01311   0.00922  -0.1093  0.5271  0.7902
   9.150   1.4894   0.01324   0.00934  -0.1087  0.5248  0.7903
   9.160   1.4865   0.01337   0.00946  -0.1081  0.5232  0.7903
   9.170   1.4812   0.01360   0.00967  -0.1071  0.5189  0.7904
   9.180   1.4913   0.01329   0.00939  -0.1086  0.5245  0.7903
   9.190   1.4819   0.01365   0.00972  -0.1069  0.5182  0.7904
   9.200   1.4712   0.01407   0.01010  -0.1050  0.5111  0.7905
   9.210   1.4739   0.01402   0.01005  -0.1053  0.5127  0.7906
   9.220   1.4642   0.01442   0.01042  -0.1036  0.5062  0.7906
   9.230   1.4936   0.01341   0.00951  -0.1083  0.5238  0.7905
   9.240   1.4890   0.01360   0.00969  -0.1074  0.5213  0.7905
   9.250   1.5096   0.01295   0.00910  -0.1107  0.5327  0.7904
   9.260   1.5097   0.01299   0.00913  -0.1105  0.5323  0.7904
   9.270   1.4766   0.01417   0.01021  -0.1049  0.5110  0.7907
   9.280   1.4921   0.01365   0.00974  -0.1073  0.5211  0.7906
   9.290   1.4890   0.01380   0.00988  -0.1067  0.5173  0.7907
   9.300   1.4981   0.01353   0.00963  -0.1080  0.5233  0.7906
   9.310   1.4855   0.01401   0.01007  -0.1058  0.5146  0.7907
   9.320   1.4949   0.01372   0.00981  -0.1072  0.5204  0.7907
   9.330   1.4873   0.01403   0.01010  -0.1058  0.5147  0.7908
   9.340   1.4966   0.01374   0.00984  -0.1072  0.5204  0.7908
   9.350   1.4691   0.01478   0.01079  -0.1026  0.5028  0.7910
   9.360   1.4648   0.01499   0.01099  -0.1018  0.4994  0.7910
   9.370   1.4657   0.01500   0.01100  -0.1018  0.4995  0.7910
   9.380   1.4848   0.01433   0.01038  -0.1047  0.5106  0.7909
   9.390   1.4749   0.01474   0.01076  -0.1030  0.5050  0.7910
   9.400   1.4861   0.01436   0.01042  -0.1046  0.5105  0.7910
   9.410   1.4906   0.01424   0.01031  -0.1052  0.5137  0.7910
   9.420   1.4934   0.01418   0.01025  -0.1055  0.5143  0.7910
   9.430   1.4893   0.01437   0.01044  -0.1047  0.5112  0.7911
   9.440   1.4567   0.01566   0.01163  -0.0994  0.4918  0.7913
   9.450   1.4493   0.01601   0.01195  -0.0981  0.4876  0.7913
   9.460   1.4673   0.01534   0.01133  -0.1008  0.4973  0.7913
   9.470   1.4356   0.01667   0.01258  -0.0958  0.4802  0.7915
   9.480   1.4517   0.01605   0.01199  -0.0981  0.4877  0.7914
   9.490   1.4736   0.01522   0.01123  -0.1014  0.4989  0.7913
   9.500   1.4733   0.01528   0.01129  -0.1012  0.4985  0.7913
   9.510   1.4946   0.01451   0.01058  -0.1045  0.5104  0.7912
   9.520   1.4765   0.01525   0.01126  -0.1015  0.4992  0.7914
   9.530   1.4887   0.01482   0.01087  -0.1033  0.5060  0.7913
   9.540   1.3747   0.01979   0.01555  -0.0860  0.4507  0.7918
   9.550   1.4810   0.01520   0.01123  -0.1018  0.5003  0.7914
   9.560   1.4824   0.01519   0.01122  -0.1019  0.5006  0.7914
   9.570   1.4229   0.01771   0.01358  -0.0926  0.4708  0.7917
   9.580   1.4526   0.01648   0.01243  -0.0969  0.4842  0.7916
   9.590   1.4761   0.01557   0.01159  -0.1005  0.4968  0.7915
   9.600   1.4223   0.01789   0.01375  -0.0921  0.4694  0.7918
   9.610   1.4753   0.01569   0.01170  -0.1001  0.4952  0.7916
   9.620   1.4867   0.01529   0.01133  -0.1017  0.5006  0.7915
   9.630   1.3910   0.01949   0.01529  -0.0872  0.4548  0.7920
