  
       XFOIL         Version 6.94
  
 Calculated polar for: 1080                                            
  
 1 1 Reynolds number fixed          Mach number fixed         
  
 xtrf =   1.000 (top)        1.000 (bottom)  
 Mach =   0.000     Re =     2.000 e 6     Ncrit =   9.000
  
  alpha     CL        CD       CDp       CM    Top_Xtr Bot_Xtr
 ------- -------- --------- --------- -------- ------- -------
   6.000   1.3524   0.00755   0.00350  -0.1303  0.5287  0.7887
   6.010   1.3533   0.00755   0.00349  -0.1303  0.5285  0.7887
   6.020   1.3548   0.00757   0.00352  -0.1304  0.5292  0.7887
   6.030   1.3544   0.00754   0.00347  -0.1301  0.5272  0.7888
   6.040   1.3560   0.00755   0.00349  -0.1302  0.5278  0.7888
   6.050   1.3558   0.00754   0.00346  -0.1299  0.5265  0.7888
   6.060   1.3586   0.00756   0.00351  -0.1303  0.5283  0.7888
   6.070   1.3593   0.00755   0.00350  -0.1303  0.5278  0.7888
   6.080   1.3590   0.00755   0.00347  -0.1300  0.5264  0.7889
   6.090   1.3617   0.00756   0.00351  -0.1303  0.5281  0.7889
   6.100   1.3622   0.00756   0.00350  -0.1302  0.5275  0.7889
   6.110   1.3612   0.00756   0.00348  -0.1298  0.5256  0.7890
   6.120   1.3636   0.00756   0.00349  -0.1301  0.5267  0.7890
   6.130   1.3659   0.00757   0.00352  -0.1304  0.5279  0.7890
   6.140   1.3641   0.00757   0.00349  -0.1297  0.5253  0.7890
   6.150   1.3649   0.00757   0.00349  -0.1297  0.5252  0.7891
   6.160   1.3681   0.00757   0.00351  -0.1302  0.5269  0.7891
   6.170   1.3667   0.00758   0.00349  -0.1297  0.5248  0.7891
   6.180   1.3704   0.00758   0.00352  -0.1302  0.5270  0.7891
   6.190   1.3702   0.00758   0.00351  -0.1300  0.5259  0.7891
   6.200   1.3716   0.00758   0.00352  -0.1300  0.5262  0.7892
   6.210   1.3710   0.00759   0.00351  -0.1297  0.5249  0.7892
   6.220   1.3720   0.00759   0.00351  -0.1297  0.5247  0.7892
   6.230   1.3735   0.00759   0.00352  -0.1298  0.5252  0.7892
   6.240   1.3741   0.00759   0.00352  -0.1297  0.5247  0.7893
   6.250   1.3768   0.00759   0.00353  -0.1301  0.5261  0.7893
   6.260   1.3776   0.00760   0.00353  -0.1300  0.5259  0.7893
   6.270   1.3771   0.00757   0.00351  -0.1297  0.5236  0.7893
   6.280   1.3783   0.00760   0.00353  -0.1297  0.5246  0.7894
   6.290   1.3792   0.00758   0.00351  -0.1297  0.5236  0.7894
   6.300   1.3803   0.00760   0.00353  -0.1297  0.5243  0.7894
   6.310   1.3814   0.00761   0.00354  -0.1298  0.5245  0.7894
   6.320   1.3823   0.00759   0.00353  -0.1297  0.5237  0.7895
   6.330   1.3836   0.00762   0.00355  -0.1298  0.5248  0.7895
   6.340   1.3846   0.00762   0.00355  -0.1298  0.5247  0.7895
   6.350   1.3855   0.00760   0.00354  -0.1297  0.5239  0.7895
   6.360   1.3863   0.00758   0.00352  -0.1297  0.5227  0.7896
   6.370   1.3876   0.00761   0.00356  -0.1298  0.5243  0.7896
   6.380   1.3882   0.00756   0.00352  -0.1296  0.5216  0.7896
   6.390   1.3893   0.00758   0.00353  -0.1297  0.5223  0.7896
   6.400   1.3905   0.00760   0.00355  -0.1297  0.5233  0.7896
   6.410   1.3915   0.00759   0.00355  -0.1297  0.5229  0.7897
   6.420   1.3923   0.00757   0.00353  -0.1296  0.5214  0.7897
   6.430   1.3934   0.00758   0.00354  -0.1297  0.5219  0.7897
   6.440   1.3946   0.00760   0.00356  -0.1297  0.5228  0.7897
   6.450   1.3952   0.00757   0.00353  -0.1296  0.5210  0.7898
   6.460   1.3963   0.00758   0.00354  -0.1296  0.5214  0.7898
   6.470   1.3976   0.00760   0.00356  -0.1297  0.5224  0.7898
   6.480   1.3977   0.00757   0.00353  -0.1295  0.5198  0.7899
   6.490   1.3991   0.00758   0.00354  -0.1296  0.5205  0.7899
   6.500   1.3995   0.00757   0.00353  -0.1294  0.5195  0.7899
   6.510   1.3980   0.00757   0.00350  -0.1289  0.5167  0.7900
   6.520   1.4014   0.00757   0.00353  -0.1294  0.5191  0.7900
   6.530   1.4033   0.00759   0.00356  -0.1296  0.5208  0.7900
   6.540   1.4029   0.00757   0.00353  -0.1293  0.5184  0.7900
   6.550   1.4034   0.00757   0.00353  -0.1292  0.5179  0.7901
   6.560   1.4027   0.00758   0.00352  -0.1288  0.5164  0.7901
   6.570   1.4058   0.00758   0.00354  -0.1293  0.5183  0.7901
   6.580   1.4034   0.00758   0.00351  -0.1285  0.5130  0.7902
   6.590   1.4043   0.00759   0.00352  -0.1285  0.5144  0.7902
   6.600   1.4051   0.00760   0.00353  -0.1285  0.5152  0.7902
   6.610   1.4064   0.00760   0.00353  -0.1285  0.5155  0.7903
   6.620   1.4095   0.00759   0.00354  -0.1290  0.5170  0.7902
   6.630   1.4053   0.00760   0.00350  -0.1279  0.5069  0.7904
   6.640   1.4095   0.00759   0.00353  -0.1285  0.5134  0.7903
   6.650   1.4097   0.00759   0.00352  -0.1284  0.5101  0.7904
   6.660   1.4115   0.00759   0.00353  -0.1285  0.5124  0.7904
   6.670   1.4125   0.00760   0.00354  -0.1285  0.5139  0.7904
   6.680   1.4124   0.00760   0.00352  -0.1283  0.5094  0.7905
   6.690   1.4141   0.00760   0.00353  -0.1284  0.5106  0.7905
   6.700   1.4104   0.00764   0.00353  -0.1275  0.5017  0.7906
   6.710   1.4163   0.00760   0.00354  -0.1285  0.5112  0.7905
   6.720   1.4130   0.00764   0.00354  -0.1276  0.5038  0.7906
   6.730   1.4157   0.00763   0.00354  -0.1279  0.5071  0.7906
   6.740   1.4115   0.00770   0.00356  -0.1268  0.4970  0.7908
   6.750   1.4178   0.00763   0.00355  -0.1279  0.5071  0.7907
   6.760   1.4140   0.00769   0.00357  -0.1270  0.4976  0.7908
   6.770   1.4145   0.00771   0.00357  -0.1268  0.4971  0.7908
   6.780   1.4172   0.00768   0.00357  -0.1272  0.4991  0.7908
   6.790   1.4124   0.00778   0.00362  -0.1260  0.4892  0.7910
   6.800   1.4120   0.00781   0.00363  -0.1257  0.4876  0.7910
   6.810   1.4173   0.00774   0.00360  -0.1266  0.4949  0.7910
   6.820   1.4069   0.00796   0.00373  -0.1243  0.4775  0.7912
   6.830   1.4132   0.00786   0.00366  -0.1254  0.4848  0.7911
   6.840   1.4047   0.00806   0.00379  -0.1235  0.4713  0.7913
   6.850   1.3966   0.00827   0.00393  -0.1217  0.4603  0.7915
   6.860   1.3926   0.00839   0.00402  -0.1208  0.4547  0.7916
   6.870   1.4203   0.00781   0.00365  -0.1260  0.4890  0.7912
   6.880   1.3899   0.00851   0.00411  -0.1199  0.4496  0.7918
   6.890   1.4115   0.00804   0.00379  -0.1238  0.4738  0.7914
   6.900   1.4151   0.00798   0.00376  -0.1244  0.4777  0.7914
   6.910   1.4078   0.00817   0.00388  -0.1227  0.4671  0.7916
   6.920   1.4047   0.00827   0.00395  -0.1219  0.4616  0.7917
   6.930   1.4115   0.00814   0.00386  -0.1230  0.4689  0.7916
   6.940   1.4045   0.00832   0.00399  -0.1215  0.4593  0.7918
   6.950   1.4091   0.00824   0.00393  -0.1222  0.4635  0.7917
   6.960   1.3950   0.00860   0.00419  -0.1193  0.4470  0.7920
   6.970   1.3966   0.00859   0.00419  -0.1194  0.4477  0.7920
   6.980   1.4067   0.00838   0.00404  -0.1211  0.4576  0.7919
   6.990   1.4166   0.00817   0.00390  -0.1229  0.4682  0.7918
   7.000   1.4039   0.00850   0.00413  -0.1202  0.4518  0.7921
   7.010   1.3870   0.00892   0.00444  -0.1168  0.4342  0.7924
   7.020   1.4127   0.00834   0.00402  -0.1215  0.4597  0.7920
   7.030   1.4092   0.00845   0.00410  -0.1207  0.4546  0.7921
   7.040   1.4003   0.00869   0.00427  -0.1188  0.4443  0.7923
   7.050   1.4023   0.00867   0.00426  -0.1190  0.4455  0.7923
   7.060   1.3937   0.00889   0.00443  -0.1171  0.4363  0.7925
   7.070   1.4031   0.00870   0.00429  -0.1187  0.4442  0.7924
   7.080   1.3958   0.00890   0.00444  -0.1171  0.4366  0.7925
   7.090   1.3972   0.00889   0.00443  -0.1172  0.4371  0.7926
   7.100   1.3946   0.00898   0.00450  -0.1165  0.4334  0.7926
   7.110   1.3948   0.00900   0.00452  -0.1164  0.4326  0.7927
   7.120   1.4006   0.00889   0.00444  -0.1173  0.4377  0.7926
   7.130   1.3950   0.00905   0.00456  -0.1161  0.4312  0.7928
   7.140   1.3760   0.00953   0.00494  -0.1123  0.4133  0.7931
   7.150   1.3992   0.00900   0.00453  -0.1165  0.4333  0.7928
   7.160   1.3854   0.00936   0.00481  -0.1137  0.4201  0.7930
   7.170   1.3916   0.00924   0.00472  -0.1147  0.4244  0.7930
   7.180   1.3833   0.00946   0.00489  -0.1129  0.4166  0.7931
   7.190   1.3851   0.00944   0.00488  -0.1131  0.4175  0.7931
   7.200   1.3918   0.00931   0.00478  -0.1141  0.4222  0.7931
   7.210   1.3831   0.00955   0.00497  -0.1123  0.4139  0.7932
   7.220   1.3689   0.00991   0.00526  -0.1096  0.4015  0.7935
   7.230   1.3835   0.00959   0.00500  -0.1120  0.4127  0.7933
   7.240   1.3655   0.01005   0.00537  -0.1086  0.3977  0.7936
   7.250   1.4007   0.00923   0.00473  -0.1149  0.4261  0.7931
   7.260   1.3868   0.00959   0.00501  -0.1121  0.4133  0.7934
   7.270   1.3719   0.00998   0.00532  -0.1092  0.4005  0.7936
   7.280   1.3909   0.00954   0.00498  -0.1125  0.4153  0.7934
   7.290   1.3957   0.00946   0.00491  -0.1132  0.4190  0.7934
   7.300   1.3839   0.00977   0.00516  -0.1108  0.4083  0.7936
   7.310   1.3947   0.00953   0.00498  -0.1126  0.4163  0.7935
   7.320   1.3815   0.00988   0.00525  -0.1100  0.4044  0.7937
   7.330   1.3803   0.00993   0.00530  -0.1096  0.4028  0.7937
   7.340   1.3823   0.00991   0.00529  -0.1098  0.4036  0.7937
   7.350   1.3506   0.01073   0.00596  -0.1040  0.3797  0.7942
   7.360   1.3647   0.01040   0.00569  -0.1063  0.3895  0.7940
   7.370   1.3695   0.01031   0.00561  -0.1070  0.3918  0.7940
   7.380   1.3770   0.01015   0.00549  -0.1081  0.3972  0.7939
   7.390   1.3923   0.00981   0.00521  -0.1107  0.4087  0.7938
   7.400   1.3757   0.01023   0.00556  -0.1076  0.3946  0.7940
   7.410   1.3940   0.00982   0.00522  -0.1107  0.4086  0.7938
   7.420   1.3915   0.00991   0.00530  -0.1100  0.4055  0.7939
   7.430   1.3683   0.01050   0.00579  -0.1057  0.3876  0.7942
   7.440   1.3707   0.01047   0.00576  -0.1060  0.3889  0.7942
   7.450   1.3832   0.01019   0.00553  -0.1080  0.3973  0.7941
   7.460   1.3906   0.01004   0.00541  -0.1092  0.4020  0.7940
   7.470   1.3700   0.01057   0.00585  -0.1053  0.3863  0.7943
   7.480   1.3566   0.01094   0.00617  -0.1028  0.3763  0.7946
   7.490   1.3694   0.01064   0.00592  -0.1049  0.3844  0.7944
   7.500   1.3812   0.01038   0.00570  -0.1068  0.3924  0.7943
   7.510   1.3638   0.01084   0.00609  -0.1036  0.3798  0.7947
   7.520   1.3631   0.01088   0.00613  -0.1033  0.3789  0.7947
   7.530   1.3606   0.01098   0.00622  -0.1027  0.3763  0.7948
   7.540   1.3644   0.01091   0.00616  -0.1032  0.3787  0.7948
   7.550   1.3704   0.01078   0.00605  -0.1040  0.3817  0.7947
   7.560   1.3641   0.01097   0.00622  -0.1028  0.3772  0.7949
   7.570   1.3655   0.01096   0.00621  -0.1028  0.3777  0.7949
   7.580   1.3703   0.01087   0.00613  -0.1035  0.3803  0.7949
   7.590   1.3615   0.01112   0.00636  -0.1018  0.3736  0.7951
   7.600   1.3544   0.01134   0.00655  -0.1005  0.3690  0.7953
   7.610   1.3510   0.01146   0.00666  -0.0997  0.3660  0.7955
   7.620   1.3429   0.01172   0.00689  -0.0982  0.3606  0.7957
   7.630   1.3543   0.01143   0.00664  -0.0999  0.3672  0.7955
   7.640   1.3575   0.01138   0.00659  -0.1003  0.3691  0.7955
   7.650   1.3475   0.01169   0.00687  -0.0985  0.3618  0.7957
   7.660   1.3538   0.01154   0.00674  -0.0994  0.3654  0.7957
   7.670   1.3668   0.01122   0.00646  -0.1014  0.3730  0.7955
   7.680   1.3691   0.01118   0.00644  -0.1016  0.3740  0.7955
   7.690   1.3543   0.01162   0.00682  -0.0990  0.3642  0.7958
   7.700   1.3732   0.01113   0.00640  -0.1020  0.3758  0.7955
   7.710   1.3549   0.01166   0.00686  -0.0988  0.3637  0.7959
   7.720   1.3533   0.01174   0.00694  -0.0983  0.3623  0.7960
   7.730   1.3455   0.01200   0.00717  -0.0969  0.3576  0.7962
   7.740   1.3621   0.01155   0.00678  -0.0995  0.3671  0.7959
   7.750   1.3467   0.01203   0.00720  -0.0968  0.3574  0.7963
   7.760   1.3375   0.01234   0.00749  -0.0952  0.3514  0.7965
   7.770   1.3574   0.01178   0.00699  -0.0982  0.3625  0.7962
   7.780   1.3542   0.01191   0.00710  -0.0975  0.3605  0.7963
   7.790   1.3458   0.01219   0.00736  -0.0960  0.3550  0.7965
   7.800   1.3403   0.01239   0.00755  -0.0950  0.3515  0.7966
   7.810   1.3380   0.01250   0.00765  -0.0945  0.3501  0.7967
   7.820   1.3425   0.01240   0.00756  -0.0951  0.3519  0.7967
   7.830   1.3471   0.01229   0.00746  -0.0956  0.3541  0.7967
   7.840   1.3381   0.01261   0.00776  -0.0941  0.3493  0.7969
   7.850   1.3517   0.01221   0.00740  -0.0961  0.3561  0.7967
   7.860   1.3434   0.01251   0.00767  -0.0946  0.3510  0.7969
   7.870   1.3407   0.01263   0.00779  -0.0940  0.3496  0.7970
   7.880   1.3138   0.01361   0.00870  -0.0899  0.3346  0.7975
   7.890   1.3219   0.01335   0.00846  -0.0910  0.3389  0.7974
   7.900   1.3331   0.01300   0.00813  -0.0925  0.3439  0.7973
   7.910   1.3281   0.01321   0.00834  -0.0916  0.3410  0.7974
   7.920   1.3332   0.01307   0.00821  -0.0922  0.3432  0.7974
   7.930   1.3405   0.01286   0.00802  -0.0931  0.3471  0.7973
   7.940   1.3240   0.01349   0.00860  -0.0906  0.3383  0.7976
   7.950   1.3492   0.01265   0.00783  -0.0942  0.3509  0.7972
   7.960   1.3056   0.01429   0.00937  -0.0878  0.3286  0.7980
   7.970   1.3289   0.01343   0.00856  -0.0909  0.3398  0.7977
   7.980   1.3297   0.01344   0.00857  -0.0909  0.3398  0.7977
   7.990   1.3471   0.01287   0.00804  -0.0933  0.3487  0.7975
   8.000   1.3344   0.01335   0.00849  -0.0913  0.3413  0.7977
   8.010   1.3155   0.01412   0.00922  -0.0885  0.3315  0.7981
   8.020   1.3276   0.01369   0.00881  -0.0900  0.3375  0.7979
   8.030   1.3309   0.01361   0.00874  -0.0904  0.3390  0.7979
   8.040   1.3297   0.01369   0.00882  -0.0901  0.3381  0.7980
   8.050   1.2895   0.01547   0.01051  -0.0846  0.3185  0.7987
   8.060   1.3162   0.01432   0.00942  -0.0879  0.3306  0.7983
   8.070   1.3264   0.01396   0.00908  -0.0892  0.3352  0.7982
   8.080   1.3158   0.01444   0.00954  -0.0876  0.3300  0.7984
   8.090   1.2927   0.01553   0.01059  -0.0845  0.3190  0.7989
   8.100   1.3351   0.01375   0.00889  -0.0900  0.3390  0.7982
   8.110   1.2964   0.01547   0.01053  -0.0848  0.3199  0.7989
   8.120   1.2665   0.01706   0.01207  -0.0811  0.3058  0.7995
   8.130   1.3278   0.01417   0.00930  -0.0886  0.3341  0.7985
   8.140   1.3183   0.01462   0.00973  -0.0872  0.3297  0.7987
   8.150   1.2517   0.01810   0.01308  -0.0792  0.2985  0.7999
   8.160   1.3307   0.01420   0.00933  -0.0886  0.3346  0.7986
   8.170   1.2945   0.01589   0.01095  -0.0839  0.3178  0.7993
   8.180   1.3101   0.01519   0.01029  -0.0857  0.3244  0.7990
   8.190   1.2865   0.01642   0.01147  -0.0827  0.3132  0.7995
   8.200   1.3133   0.01515   0.01025  -0.0859  0.3254  0.7991
   8.210   1.2799   0.01689   0.01193  -0.0818  0.3100  0.7997
   8.220   1.2938   0.01621   0.01128  -0.0833  0.3161  0.7995
   8.230   1.2813   0.01693   0.01198  -0.0817  0.3102  0.7998
   8.240   1.2702   0.01762   0.01264  -0.0804  0.3046  0.8000
   8.250   1.3077   0.01569   0.01078  -0.0846  0.3215  0.7994
   8.260   1.2979   0.01623   0.01131  -0.0833  0.3171  0.7996
   8.270   1.2980   0.01629   0.01137  -0.0832  0.3169  0.7997
   8.280   1.2422   0.01954   0.01452  -0.0770  0.2908  0.8006
   8.290   1.2773   0.01754   0.01258  -0.0807  0.3070  0.8001
   8.300   1.2946   0.01665   0.01172  -0.0825  0.3144  0.7999
   8.310   1.3058   0.01613   0.01122  -0.0837  0.3196  0.7998
   8.320   1.3132   0.01581   0.01092  -0.0845  0.3223  0.7997
   8.330   1.2643   0.01856   0.01358  -0.0789  0.3001  0.8005
   8.340   1.2532   0.01929   0.01429  -0.0776  0.2945  0.8008
   8.350   1.2984   0.01675   0.01183  -0.0824  0.3150  0.8001
   8.360   1.2680   0.01854   0.01357  -0.0790  0.3009  0.8006
   8.370   1.3113   0.01619   0.01130  -0.0837  0.3204  0.8000
   8.380   1.3049   0.01659   0.01168  -0.0829  0.3175  0.8001
   8.390   1.2840   0.01780   0.01286  -0.0804  0.3079  0.8005
   8.400   1.2452   0.02019   0.01518  -0.0763  0.2898  0.8012
   8.410   1.2802   0.01816   0.01321  -0.0798  0.3054  0.8007
   8.420   1.2796   0.01826   0.01331  -0.0797  0.3049  0.8008
   8.430   1.2358   0.02097   0.01594  -0.0751  0.2846  0.8015
   8.440   1.2792   0.01841   0.01347  -0.0795  0.3042  0.8009
   8.450   1.2882   0.01795   0.01303  -0.0803  0.3085  0.8008
   8.460   1.2380   0.02104   0.01602  -0.0750  0.2850  0.8016
   8.470   1.2638   0.01954   0.01457  -0.0776  0.2969  0.8013
   8.480   1.2922   0.01792   0.01301  -0.0805  0.3096  0.8008
   8.490   1.2879   0.01823   0.01331  -0.0799  0.3074  0.8010
   8.500   1.2596   0.02000   0.01502  -0.0769  0.2940  0.8015
   8.510   1.2870   0.01842   0.01350  -0.0796  0.3064  0.8011
   8.520   1.2817   0.01880   0.01387  -0.0790  0.3035  0.8012
   8.530   1.2961   0.01802   0.01311  -0.0804  0.3101  0.8010
   8.540   1.2720   0.01952   0.01457  -0.0778  0.2994  0.8015
   8.550   1.2998   0.01794   0.01304  -0.0806  0.3112  0.8011
   8.560   1.2495   0.02103   0.01604  -0.0753  0.2888  0.8019
   8.570   1.2257   0.02255   0.01752  -0.0728  0.2775  0.8023
   8.580   1.2770   0.01949   0.01455  -0.0779  0.3005  0.8016
   8.590   1.2481   0.02133   0.01634  -0.0749  0.2873  0.8021
   8.600   1.2395   0.02192   0.01691  -0.0739  0.2828  0.8022
   8.610   1.2287   0.02264   0.01762  -0.0728  0.2782  0.8025
   8.620   1.2588   0.02088   0.01591  -0.0757  0.2912  0.8021
   8.630   1.2622   0.02074   0.01578  -0.0760  0.2925  0.8021
   8.640   1.2571   0.02112   0.01615  -0.0754  0.2904  0.8022
   8.660   1.2592   0.02113   0.01617  -0.0754  0.2907  0.8023
   8.670   1.2114   0.02411   0.01905  -0.0705  0.2690  0.8029
   8.680   1.2572   0.02139   0.01642  -0.0750  0.2897  0.8024
   8.690   1.2635   0.02107   0.01612  -0.0756  0.2919  0.8024
   8.700   1.2631   0.02117   0.01622  -0.0755  0.2917  0.8024
   8.710   1.2352   0.02293   0.01793  -0.0726  0.2793  0.8028
   8.720   1.2669   0.02107   0.01613  -0.0757  0.2929  0.8024
   8.730   1.2242   0.02375   0.01872  -0.0713  0.2734  0.8031
   8.740   1.2361   0.02309   0.01808  -0.0724  0.2793  0.8029
   8.750   1.2570   0.02188   0.01692  -0.0744  0.2884  0.8027
   8.760   1.2334   0.02339   0.01839  -0.0720  0.2775  0.8031
   8.770   1.2099   0.02490   0.01984  -0.0695  0.2661  0.8034
   8.780   1.2448   0.02283   0.01785  -0.0729  0.2819  0.8030
   8.790   1.2144   0.02476   0.01971  -0.0698  0.2681  0.8035
   8.800   1.2562   0.02228   0.01732  -0.0739  0.2870  0.8030
   8.810   1.2578   0.02225   0.01730  -0.0740  0.2875  0.8030
   8.820   1.2700   0.02158   0.01665  -0.0751  0.2924  0.8029
   8.830   1.2231   0.02450   0.01948  -0.0703  0.2712  0.8035
   8.840   1.2136   0.02515   0.02010  -0.0693  0.2666  0.8037
   8.850   1.2300   0.02422   0.01921  -0.0708  0.2737  0.8035
   8.860   1.2334   0.02408   0.01908  -0.0711  0.2752  0.8035
   8.870   1.2608   0.02248   0.01754  -0.0737  0.2878  0.8032
   8.880   1.2101   0.02563   0.02058  -0.0686  0.2637  0.8039
   8.890   1.1751   0.02784   0.02270  -0.0652  0.2460  0.8043
   8.900   1.2462   0.02358   0.01861  -0.0720  0.2806  0.8036
   8.910   1.2311   0.02456   0.01956  -0.0704  0.2732  0.8038
   8.920   1.2009   0.02647   0.02140  -0.0674  0.2591  0.8042
   8.930   1.2249   0.02508   0.02007  -0.0697  0.2704  0.8039
   8.940   1.2252   0.02514   0.02012  -0.0696  0.2703  0.8040
   8.950   1.2496   0.02372   0.01876  -0.0719  0.2812  0.8038
   8.960   1.2085   0.02629   0.02124  -0.0678  0.2616  0.8043
   8.970   1.2302   0.02504   0.02003  -0.0698  0.2718  0.8041
   8.980   1.2411   0.02444   0.01946  -0.0708  0.2769  0.8040
   8.990   1.2351   0.02488   0.01989  -0.0702  0.2737  0.8041
   9.000   1.2125   0.02632   0.02128  -0.0679  0.2627  0.8044
   9.010   1.2145   0.02627   0.02123  -0.0680  0.2635  0.8044
   9.020   1.2057   0.02687   0.02181  -0.0670  0.2595  0.8045
   9.030   1.2058   0.02694   0.02188  -0.0670  0.2592  0.8045
   9.040   1.2319   0.02541   0.02041  -0.0694  0.2713  0.8043
   9.050   1.2111   0.02675   0.02171  -0.0673  0.2612  0.8046
   9.070   1.2030   0.02738   0.02231  -0.0664  0.2566  0.8047
   9.080   1.2351   0.02549   0.02050  -0.0694  0.2720  0.8045
   9.090   1.1831   0.02874   0.02362  -0.0643  0.2455  0.8050
   9.100   1.2074   0.02732   0.02226  -0.0665  0.2583  0.8048
   9.120   1.1994   0.02795   0.02288  -0.0656  0.2537  0.8049
   9.140   1.2225   0.02668   0.02166  -0.0677  0.2649  0.8048
   9.150   1.2300   0.02629   0.02130  -0.0683  0.2689  0.8048
   9.170   1.1803   0.02946   0.02434  -0.0634  0.2423  0.8054
   9.180   1.1665   0.03039   0.02523  -0.0621  0.2340  0.8057
   9.190   1.1975   0.02855   0.02347  -0.0649  0.2514  0.8054
   9.200   1.1972   0.02864   0.02356  -0.0648  0.2509  0.8054
