  
       XFOIL         Version 6.94
  
 Calculated polar for: 1080                                            
  
 1 1 Reynolds number fixed          Mach number fixed         
  
 xtrf =   1.000 (top)        1.000 (bottom)  
 Mach =   0.000     Re =     2.000 e 6     Ncrit =   9.000
  
  alpha     CL        CD       CDp       CM    Top_Xtr Bot_Xtr
 ------- -------- --------- --------- -------- ------- -------
   6.000   1.0061   0.01307   0.00840  -0.0459  0.4524  0.7189
   6.010   1.0066   0.01307   0.00842  -0.0459  0.4523  0.7253
   6.020   1.0072   0.01307   0.00844  -0.0458  0.4524  0.7300
   6.030   1.0076   0.01309   0.00846  -0.0457  0.4520  0.7310
   6.040   1.0087   0.01309   0.00846  -0.0457  0.4522  0.7288
   6.050   1.0094   0.01310   0.00848  -0.0457  0.4521  0.7319
   6.060   1.0104   0.01312   0.00848  -0.0457  0.4520  0.7280
   6.070   1.0111   0.01312   0.00850  -0.0457  0.4520  0.7330
   6.080   1.0118   0.01314   0.00851  -0.0456  0.4518  0.7317
   6.090   1.0127   0.01317   0.00851  -0.0456  0.4516  0.7256
   6.100   1.0144   0.01317   0.00850  -0.0458  0.4519  0.7190
   6.110   1.0139   0.01317   0.00855  -0.0455  0.4515  0.7356
   6.120   1.0147   0.01320   0.00856  -0.0455  0.4513  0.7304
   6.130   1.0154   0.01319   0.00858  -0.0455  0.4514  0.7370
   6.140   1.0163   0.01322   0.00859  -0.0455  0.4512  0.7334
   6.150   1.0171   0.01322   0.00860  -0.0454  0.4513  0.7356
   6.160   1.0177   0.01324   0.00861  -0.0454  0.4511  0.7356
   6.170   1.0189   0.01324   0.00861  -0.0454  0.4512  0.7334
   6.180   1.0188   0.01327   0.00865  -0.0453  0.4507  0.7379
   6.190   1.0198   0.01326   0.00866  -0.0453  0.4509  0.7400
   6.200   1.0204   0.01329   0.00868  -0.0452  0.4507  0.7389
   6.210   1.0217   0.01330   0.00866  -0.0453  0.4507  0.7316
   6.220   1.0218   0.01331   0.00870  -0.0451  0.4505  0.7403
   6.230   1.0231   0.01333   0.00869  -0.0452  0.4504  0.7343
   6.240   1.0235   0.01335   0.00871  -0.0452  0.4502  0.7349
   6.250   1.0245   0.01336   0.00872  -0.0452  0.4502  0.7344
   6.260   1.0249   0.01336   0.00875  -0.0451  0.4502  0.7425
   6.280   1.0267   0.01339   0.00876  -0.0451  0.4500  0.7354
   6.290   1.0271   0.01340   0.00878  -0.0450  0.4498  0.7398
   6.300   1.0279   0.01342   0.00880  -0.0449  0.4498  0.7394
   6.310   1.0285   0.01343   0.00881  -0.0449  0.4496  0.7388
   6.320   1.0295   0.01345   0.00881  -0.0449  0.4496  0.7360
   6.330   1.0304   0.01345   0.00883  -0.0449  0.4496  0.7439
   6.340   1.0308   0.01348   0.00885  -0.0448  0.4492  0.7437
   6.350   1.0317   0.01349   0.00886  -0.0448  0.4493  0.7440
   6.360   1.0325   0.01349   0.00886  -0.0448  0.4492  0.7397
   6.370   1.0335   0.01350   0.00888  -0.0448  0.4492  0.7438
   6.380   1.0344   0.01350   0.00889  -0.0448  0.4490  0.7429
   6.390   1.0351   0.01351   0.00891  -0.0448  0.4490  0.7462
   6.400   1.0362   0.01351   0.00891  -0.0448  0.4489  0.7466
   6.410   1.0373   0.01353   0.00891  -0.0449  0.4490  0.7442
   6.420   1.0379   0.01353   0.00893  -0.0448  0.4489  0.7461
   6.430   1.0390   0.01354   0.00892  -0.0448  0.4488  0.7399
   6.440   1.0400   0.01355   0.00893  -0.0449  0.4487  0.7431
   6.450   1.0411   0.01356   0.00894  -0.0449  0.4487  0.7433
   6.460   1.0418   0.01356   0.00896  -0.0448  0.4486  0.7453
   6.470   1.0425   0.01357   0.00898  -0.0448  0.4485  0.7472
   6.480   1.0434   0.01358   0.00899  -0.0448  0.4484  0.7475
   6.490   1.0449   0.01359   0.00897  -0.0449  0.4483  0.7439
   6.500   1.0453   0.01359   0.00901  -0.0448  0.4482  0.7485
   6.510   1.0462   0.01361   0.00900  -0.0448  0.4483  0.7454
   6.520   1.0470   0.01361   0.00902  -0.0448  0.4482  0.7477
   6.530   1.0478   0.01362   0.00904  -0.0448  0.4482  0.7496
   6.540   1.0489   0.01363   0.00904  -0.0448  0.4480  0.7480
   6.550   1.0499   0.01363   0.00904  -0.0448  0.4479  0.7470
   6.560   1.0505   0.01365   0.00906  -0.0448  0.4480  0.7483
   6.570   1.0515   0.01365   0.00907  -0.0448  0.4478  0.7476
   6.580   1.0524   0.01366   0.00908  -0.0448  0.4478  0.7487
   6.590   1.0532   0.01367   0.00909  -0.0448  0.4478  0.7490
   6.600   1.0542   0.01369   0.00911  -0.0448  0.4476  0.7512
   6.610   1.0552   0.01369   0.00910  -0.0448  0.4475  0.7479
   6.620   1.0559   0.01370   0.00912  -0.0448  0.4475  0.7488
   6.630   1.0569   0.01370   0.00912  -0.0448  0.4474  0.7485
   6.640   1.0578   0.01371   0.00914  -0.0448  0.4475  0.7489
   6.650   1.0586   0.01374   0.00916  -0.0448  0.4472  0.7522
   6.660   1.0595   0.01374   0.00916  -0.0448  0.4471  0.7507
   6.670   1.0604   0.01374   0.00916  -0.0448  0.4471  0.7483
   6.680   1.0613   0.01375   0.00918  -0.0448  0.4470  0.7497
   6.690   1.0621   0.01376   0.00919  -0.0448  0.4469  0.7501
   6.700   1.0630   0.01377   0.00920  -0.0448  0.4466  0.7510
   6.710   1.0639   0.01378   0.00921  -0.0448  0.4468  0.7506
   6.720   1.0650   0.01380   0.00923  -0.0448  0.4466  0.7533
   6.730   1.0656   0.01380   0.00923  -0.0448  0.4467  0.7508
   6.740   1.0665   0.01381   0.00924  -0.0447  0.4465  0.7505
   6.750   1.0675   0.01382   0.00925  -0.0448  0.4465  0.7503
   6.760   1.0684   0.01383   0.00926  -0.0448  0.4464  0.7516
   6.770   1.0692   0.01385   0.00928  -0.0447  0.4465  0.7547
   6.780   1.0701   0.01385   0.00928  -0.0447  0.4464  0.7508
   6.790   1.0709   0.01387   0.00930  -0.0447  0.4459  0.7549
   6.800   1.0717   0.01387   0.00930  -0.0447  0.4457  0.7506
   6.810   1.0725   0.01389   0.00933  -0.0447  0.4458  0.7558
   6.820   1.0736   0.01390   0.00933  -0.0447  0.4460  0.7532
   6.830   1.0744   0.01390   0.00933  -0.0447  0.4456  0.7517
   6.840   1.0753   0.01391   0.00934  -0.0447  0.4457  0.7521
   6.850   1.0764   0.01393   0.00936  -0.0447  0.4457  0.7537
   6.860   1.0768   0.01394   0.00938  -0.0446  0.4454  0.7562
   6.870   1.0779   0.01395   0.00938  -0.0447  0.4456  0.7551
   6.880   1.0785   0.01396   0.00940  -0.0446  0.4451  0.7562
   6.890   1.0793   0.01397   0.00941  -0.0446  0.4452  0.7562
   6.900   1.0801   0.01398   0.00942  -0.0446  0.4448  0.7560
   6.910   1.0809   0.01399   0.00944  -0.0446  0.4450  0.7565
   6.920   1.0821   0.01400   0.00943  -0.0447  0.4450  0.7546
   6.930   1.0825   0.01401   0.00946  -0.0446  0.4446  0.7567
   6.940   1.0834   0.01402   0.00947  -0.0445  0.4446  0.7567
   6.950   1.0843   0.01403   0.00948  -0.0446  0.4445  0.7566
   6.960   1.0851   0.01404   0.00949  -0.0445  0.4445  0.7568
   6.970   1.0862   0.01406   0.00949  -0.0446  0.4443  0.7545
   6.980   1.0867   0.01407   0.00952  -0.0445  0.4442  0.7569
   6.990   1.0876   0.01407   0.00952  -0.0445  0.4443  0.7570
   7.000   1.0884   0.01409   0.00954  -0.0445  0.4441  0.7570
   7.010   1.0893   0.01410   0.00954  -0.0445  0.4440  0.7566
   7.020   1.0899   0.01411   0.00956  -0.0445  0.4437  0.7571
   7.030   1.0907   0.01412   0.00957  -0.0444  0.4437  0.7572
   7.040   1.0915   0.01414   0.00958  -0.0444  0.4435  0.7572
   7.050   1.0924   0.01414   0.00959  -0.0444  0.4436  0.7573
   7.060   1.0935   0.01415   0.00959  -0.0445  0.4435  0.7552
   7.070   1.0941   0.01417   0.00961  -0.0444  0.4434  0.7569
   7.080   1.0947   0.01418   0.00963  -0.0444  0.4432  0.7575
   7.090   1.0957   0.01419   0.00964  -0.0444  0.4433  0.7575
   7.100   1.0967   0.01419   0.00964  -0.0444  0.4433  0.7568
   7.110   1.0971   0.01422   0.00967  -0.0443  0.4429  0.7576
   7.120   1.0981   0.01423   0.00967  -0.0443  0.4430  0.7577
   7.130   1.0989   0.01424   0.00969  -0.0443  0.4428  0.7577
   7.140   1.0996   0.01425   0.00970  -0.0443  0.4428  0.7577
   7.150   1.1005   0.01426   0.00971  -0.0443  0.4428  0.7578
   7.160   1.1014   0.01427   0.00972  -0.0443  0.4427  0.7579
   7.170   1.1017   0.01430   0.00974  -0.0442  0.4422  0.7579
   7.180   1.1027   0.01430   0.00975  -0.0442  0.4423  0.7580
   7.190   1.1034   0.01432   0.00976  -0.0442  0.4420  0.7580
   7.200   1.1041   0.01433   0.00978  -0.0442  0.4419  0.7581
   7.210   1.1051   0.01434   0.00979  -0.0442  0.4420  0.7581
   7.220   1.1061   0.01434   0.00979  -0.0442  0.4422  0.7582
   7.230   1.1064   0.01437   0.00981  -0.0441  0.4417  0.7583
   7.240   1.1074   0.01438   0.00982  -0.0441  0.4417  0.7583
   7.250   1.1080   0.01440   0.00984  -0.0441  0.4415  0.7584
   7.260   1.1087   0.01441   0.00985  -0.0440  0.4414  0.7584
   7.270   1.1099   0.01441   0.00986  -0.0441  0.4416  0.7585
   7.280   1.1105   0.01443   0.00987  -0.0440  0.4414  0.7585
   7.290   1.1110   0.01445   0.00989  -0.0440  0.4412  0.7586
   7.300   1.1117   0.01446   0.00991  -0.0440  0.4410  0.7586
   7.310   1.1125   0.01448   0.00992  -0.0439  0.4409  0.7587
   7.320   1.1136   0.01448   0.00992  -0.0440  0.4411  0.7587
   7.330   1.1138   0.01451   0.00995  -0.0439  0.4405  0.7588
   7.340   1.1152   0.01450   0.00995  -0.0439  0.4410  0.7589
   7.350   1.1151   0.01454   0.00998  -0.0438  0.4404  0.7589
   7.360   1.1160   0.01455   0.00999  -0.0438  0.4404  0.7590
   7.370   1.1170   0.01456   0.00999  -0.0438  0.4404  0.7574
   7.380   1.1175   0.01458   0.01002  -0.0437  0.4402  0.7591
   7.390   1.1179   0.01461   0.01004  -0.0437  0.4399  0.7591
   7.400   1.1190   0.01461   0.01004  -0.0437  0.4401  0.7592
   7.410   1.1194   0.01463   0.01007  -0.0436  0.4398  0.7593
   7.420   1.1203   0.01464   0.01008  -0.0436  0.4398  0.7593
   7.430   1.1210   0.01466   0.01009  -0.0436  0.4397  0.7594
   7.440   1.1212   0.01469   0.01012  -0.0435  0.4394  0.7594
   7.450   1.1224   0.01469   0.01012  -0.0435  0.4396  0.7595
   7.460   1.1230   0.01471   0.01014  -0.0435  0.4394  0.7595
   7.470   1.1233   0.01474   0.01017  -0.0434  0.4391  0.7596
   7.480   1.1240   0.01475   0.01018  -0.0434  0.4391  0.7596
   7.490   1.1245   0.01477   0.01021  -0.0433  0.4389  0.7597
   7.500   1.1254   0.01478   0.01021  -0.0433  0.4389  0.7597
   7.510   1.1261   0.01480   0.01023  -0.0433  0.4389  0.7598
   7.520   1.1264   0.01483   0.01026  -0.0432  0.4385  0.7598
   7.530   1.1274   0.01483   0.01027  -0.0432  0.4384  0.7599
   7.540   1.1283   0.01485   0.01028  -0.0432  0.4385  0.7600
   7.550   1.1291   0.01486   0.01029  -0.0432  0.4384  0.7600
   7.560   1.1300   0.01487   0.01030  -0.0432  0.4383  0.7601
   7.570   1.1311   0.01487   0.01030  -0.0432  0.4382  0.7601
   7.580   1.1319   0.01488   0.01032  -0.0432  0.4381  0.7602
   7.590   1.1329   0.01489   0.01032  -0.0432  0.4380  0.7602
   7.600   1.1337   0.01490   0.01034  -0.0432  0.4380  0.7603
   7.610   1.1346   0.01491   0.01035  -0.0432  0.4379  0.7603
   7.620   1.1357   0.01491   0.01035  -0.0433  0.4378  0.7604
   7.630   1.1365   0.01492   0.01036  -0.0432  0.4377  0.7604
   7.640   1.1374   0.01493   0.01037  -0.0433  0.4377  0.7605
   7.650   1.1383   0.01494   0.01038  -0.0433  0.4376  0.7605
   7.660   1.1391   0.01495   0.01039  -0.0433  0.4375  0.7606
   7.670   1.1401   0.01496   0.01040  -0.0433  0.4374  0.7607
   7.680   1.1409   0.01497   0.01041  -0.0433  0.4373  0.7607
   7.690   1.1417   0.01498   0.01043  -0.0433  0.4373  0.7607
   7.700   1.1427   0.01499   0.01044  -0.0433  0.4373  0.7608
   7.710   1.1436   0.01500   0.01045  -0.0433  0.4371  0.7609
   7.720   1.1445   0.01501   0.01046  -0.0433  0.4371  0.7609
   7.730   1.1453   0.01502   0.01047  -0.0433  0.4369  0.7610
   7.740   1.1463   0.01503   0.01048  -0.0433  0.4368  0.7610
   7.750   1.1470   0.01504   0.01049  -0.0433  0.4368  0.7611
   7.760   1.1480   0.01505   0.01050  -0.0433  0.4366  0.7611
   7.770   1.1489   0.01506   0.01051  -0.0433  0.4366  0.7612
   7.780   1.1497   0.01507   0.01052  -0.0433  0.4365  0.7612
   7.790   1.1505   0.01508   0.01053  -0.0433  0.4364  0.7613
   7.800   1.1514   0.01509   0.01054  -0.0433  0.4363  0.7613
   7.810   1.1523   0.01510   0.01055  -0.0433  0.4362  0.7614
   7.820   1.1531   0.01511   0.01056  -0.0433  0.4361  0.7614
   7.830   1.1541   0.01512   0.01057  -0.0433  0.4358  0.7615
   7.840   1.1549   0.01513   0.01058  -0.0433  0.4359  0.7616
   7.850   1.1557   0.01514   0.01060  -0.0433  0.4359  0.7616
   7.860   1.1566   0.01515   0.01061  -0.0433  0.4357  0.7617
   7.870   1.1574   0.01516   0.01062  -0.0432  0.4356  0.7617
   7.880   1.1583   0.01517   0.01063  -0.0433  0.4355  0.7618
   7.890   1.1591   0.01519   0.01064  -0.0432  0.4354  0.7618
   7.900   1.1600   0.01520   0.01065  -0.0432  0.4353  0.7619
   7.910   1.1608   0.01521   0.01066  -0.0432  0.4352  0.7619
   7.920   1.1616   0.01522   0.01067  -0.0432  0.4351  0.7620
   7.930   1.1625   0.01523   0.01069  -0.0432  0.4350  0.7620
   7.940   1.1632   0.01524   0.01070  -0.0432  0.4348  0.7621
   7.950   1.1641   0.01526   0.01071  -0.0432  0.4346  0.7621
   7.960   1.1649   0.01527   0.01072  -0.0432  0.4346  0.7622
   7.970   1.1657   0.01528   0.01073  -0.0432  0.4346  0.7622
   7.980   1.1666   0.01529   0.01074  -0.0432  0.4345  0.7623
   7.990   1.1674   0.01530   0.01076  -0.0432  0.4344  0.7623
   8.000   1.1682   0.01532   0.01077  -0.0432  0.4341  0.7624
   8.010   1.1690   0.01533   0.01078  -0.0432  0.4341  0.7624
   8.020   1.1699   0.01534   0.01079  -0.0432  0.4341  0.7625
   8.030   1.1708   0.01535   0.01080  -0.0432  0.4339  0.7625
   8.040   1.1715   0.01536   0.01082  -0.0431  0.4338  0.7626
   8.050   1.1723   0.01538   0.01083  -0.0431  0.4336  0.7626
   8.060   1.1731   0.01539   0.01084  -0.0431  0.4336  0.7627
   8.070   1.1739   0.01540   0.01086  -0.0431  0.4334  0.7627
   8.080   1.1747   0.01541   0.01087  -0.0431  0.4333  0.7628
   8.090   1.1755   0.01543   0.01088  -0.0431  0.4332  0.7628
   8.100   1.1762   0.01544   0.01090  -0.0431  0.4330  0.7629
   8.110   1.1770   0.01545   0.01091  -0.0431  0.4330  0.7629
   8.120   1.1778   0.01547   0.01092  -0.0430  0.4328  0.7630
   8.130   1.1787   0.01548   0.01093  -0.0430  0.4328  0.7630
   8.140   1.1795   0.01549   0.01095  -0.0430  0.4327  0.7631
   8.150   1.1801   0.01551   0.01096  -0.0430  0.4324  0.7631
   8.160   1.1811   0.01552   0.01097  -0.0430  0.4324  0.7632
   8.170   1.1815   0.01554   0.01099  -0.0429  0.4320  0.7632
   8.180   1.1825   0.01555   0.01100  -0.0430  0.4321  0.7633
   8.190   1.1831   0.01557   0.01102  -0.0429  0.4319  0.7633
   8.200   1.1841   0.01558   0.01103  -0.0429  0.4319  0.7633
   8.210   1.1848   0.01559   0.01104  -0.0429  0.4318  0.7634
   8.220   1.1854   0.01561   0.01106  -0.0429  0.4316  0.7634
   8.230   1.1861   0.01563   0.01108  -0.0428  0.4314  0.7635
   8.240   1.1869   0.01564   0.01109  -0.0428  0.4313  0.7635
   8.250   1.1876   0.01566   0.01110  -0.0428  0.4312  0.7635
   8.260   1.1883   0.01567   0.01112  -0.0428  0.4310  0.7636
   8.270   1.1891   0.01569   0.01114  -0.0428  0.4310  0.7636
   8.280   1.1897   0.01571   0.01115  -0.0427  0.4307  0.7637
   8.290   1.1905   0.01572   0.01116  -0.0427  0.4307  0.7637
   8.300   1.1914   0.01573   0.01118  -0.0427  0.4307  0.7638
   8.310   1.1920   0.01575   0.01119  -0.0427  0.4306  0.7638
   8.320   1.1923   0.01579   0.01122  -0.0426  0.4302  0.7639
   8.330   1.1934   0.01579   0.01123  -0.0426  0.4304  0.7639
   8.340   1.1938   0.01581   0.01126  -0.0426  0.4301  0.7639
   8.350   1.1943   0.01584   0.01128  -0.0425  0.4299  0.7640
   8.360   1.1955   0.01584   0.01128  -0.0426  0.4301  0.7640
   8.380   1.1958   0.01591   0.01135  -0.0423  0.4293  0.7642
   8.390   1.1971   0.01590   0.01134  -0.0424  0.4296  0.7643
   8.400   1.1970   0.01594   0.01138  -0.0423  0.4291  0.7643
   8.410   1.1980   0.01595   0.01139  -0.0423  0.4292  0.7644
   8.420   1.1987   0.01596   0.01141  -0.0422  0.4291  0.7645
   8.430   1.1995   0.01598   0.01142  -0.0422  0.4291  0.7645
   8.440   1.1995   0.01602   0.01146  -0.0421  0.4287  0.7646
   8.450   1.1998   0.01605   0.01149  -0.0420  0.4284  0.7647
   8.460   1.2012   0.01604   0.01148  -0.0421  0.4287  0.7647
   8.470   1.2007   0.01610   0.01153  -0.0419  0.4280  0.7649
   8.480   1.2018   0.01610   0.01154  -0.0419  0.4282  0.7649
   8.490   1.2024   0.01612   0.01156  -0.0419  0.4280  0.7650
   8.500   1.2033   0.01613   0.01157  -0.0419  0.4277  0.7650
   8.530   1.2055   0.01617   0.01161  -0.0418  0.4278  0.7652
   8.540   1.2065   0.01617   0.01162  -0.0419  0.4277  0.7653
   8.550   1.2073   0.01619   0.01164  -0.0418  0.4277  0.7653
   8.560   1.2082   0.01620   0.01165  -0.0418  0.4275  0.7654
   8.570   1.2093   0.01620   0.01165  -0.0419  0.4271  0.7655
   8.580   1.2101   0.01621   0.01166  -0.0419  0.4271  0.7656
   8.590   1.2110   0.01622   0.01168  -0.0419  0.4269  0.7657
   8.600   1.2118   0.01623   0.01169  -0.0419  0.4269  0.7657
   8.610   1.2126   0.01624   0.01170  -0.0419  0.4268  0.7657
   8.620   1.2136   0.01625   0.01171  -0.0419  0.4265  0.7658
   8.630   1.2143   0.01627   0.01173  -0.0419  0.4267  0.7659
   8.640   1.2153   0.01627   0.01174  -0.0419  0.4263  0.7660
   8.650   1.2160   0.01629   0.01175  -0.0419  0.4266  0.7660
   8.660   1.2169   0.01630   0.01176  -0.0419  0.4265  0.7661
   8.670   1.2177   0.01631   0.01177  -0.0419  0.4260  0.7660
   8.680   1.2186   0.01632   0.01179  -0.0419  0.4263  0.7662
   8.690   1.2193   0.01633   0.01180  -0.0418  0.4259  0.7662
   8.700   1.2203   0.01634   0.01181  -0.0419  0.4258  0.7663
   8.710   1.2211   0.01635   0.01182  -0.0418  0.4256  0.7663
   8.720   1.2218   0.01637   0.01184  -0.0418  0.4256  0.7664
   8.730   1.2227   0.01638   0.01185  -0.0418  0.4257  0.7665
   8.740   1.2235   0.01639   0.01186  -0.0418  0.4252  0.7665
   8.750   1.2244   0.01640   0.01188  -0.0418  0.4253  0.7666
   8.760   1.2251   0.01642   0.01189  -0.0418  0.4252  0.7666
   8.770   1.2260   0.01643   0.01190  -0.0418  0.4251  0.7667
   8.780   1.2267   0.01644   0.01192  -0.0418  0.4246  0.7667
   8.790   1.2276   0.01645   0.01193  -0.0418  0.4248  0.7668
   8.800   1.2282   0.01647   0.01195  -0.0418  0.4243  0.7669
   8.810   1.2291   0.01648   0.01196  -0.0418  0.4244  0.7669
   8.820   1.2300   0.01649   0.01197  -0.0418  0.4242  0.7670
   8.830   1.2306   0.01651   0.01199  -0.0417  0.4240  0.7670
   8.840   1.2315   0.01652   0.01200  -0.0417  0.4239  0.7671
   8.850   1.2324   0.01653   0.01201  -0.0417  0.4241  0.7672
   8.860   1.2330   0.01655   0.01203  -0.0417  0.4236  0.7672
   8.870   1.2339   0.01656   0.01204  -0.0417  0.4236  0.7673
   8.880   1.2345   0.01658   0.01206  -0.0417  0.4233  0.7673
   8.890   1.2353   0.01659   0.01207  -0.0417  0.4231  0.7674
   8.900   1.2359   0.01661   0.01209  -0.0416  0.4229  0.7675
   8.910   1.2368   0.01662   0.01211  -0.0416  0.4228  0.7675
   8.920   1.2375   0.01664   0.01212  -0.0416  0.4226  0.7676
   8.930   1.2384   0.01665   0.01213  -0.0416  0.4228  0.7676
   8.940   1.2391   0.01666   0.01215  -0.0416  0.4226  0.7677
   8.950   1.2396   0.01669   0.01217  -0.0415  0.4223  0.7677
   8.960   1.2406   0.01669   0.01218  -0.0416  0.4223  0.7678
   8.970   1.2413   0.01671   0.01220  -0.0415  0.4220  0.7679
   8.980   1.2420   0.01673   0.01221  -0.0415  0.4219  0.7679
   8.990   1.2425   0.01675   0.01223  -0.0415  0.4216  0.7679
   9.000   1.2433   0.01676   0.01225  -0.0415  0.4215  0.7680
   9.010   1.2440   0.01678   0.01227  -0.0414  0.4214  0.7680
   9.020   1.2447   0.01680   0.01228  -0.0414  0.4213  0.7681
   9.030   1.2454   0.01681   0.01230  -0.0414  0.4211  0.7682
   9.040   1.2464   0.01682   0.01231  -0.0414  0.4212  0.7683
   9.050   1.2467   0.01685   0.01234  -0.0413  0.4208  0.7683
   9.060   1.2475   0.01686   0.01235  -0.0413  0.4207  0.7684
   9.070   1.2479   0.01689   0.01238  -0.0413  0.4204  0.7684
   9.080   1.2487   0.01690   0.01239  -0.0412  0.4203  0.7685
   9.090   1.2493   0.01693   0.01241  -0.0412  0.4201  0.7685
   9.100   1.2496   0.01696   0.01244  -0.0411  0.4198  0.7686
   9.110   1.2507   0.01696   0.01244  -0.0412  0.4199  0.7686
   9.120   1.2507   0.01700   0.01249  -0.0410  0.4194  0.7687
   9.130   1.2515   0.01702   0.01250  -0.0410  0.4194  0.7687
   9.140   1.2522   0.01703   0.01252  -0.0410  0.4193  0.7689
   9.150   1.2528   0.01705   0.01254  -0.0410  0.4191  0.7689
   9.160   1.2531   0.01709   0.01257  -0.0409  0.4189  0.7690
   9.170   1.2537   0.01711   0.01259  -0.0409  0.4188  0.7690
   9.180   1.2547   0.01711   0.01260  -0.0409  0.4188  0.7691
   9.190   1.2551   0.01714   0.01262  -0.0408  0.4187  0.7691
   9.200   1.2556   0.01716   0.01265  -0.0408  0.4184  0.7691
   9.210   1.2562   0.01719   0.01267  -0.0407  0.4184  0.7692
   9.220   1.2567   0.01721   0.01269  -0.0407  0.4181  0.7693
   9.230   1.2563   0.01727   0.01275  -0.0405  0.4175  0.7694
   9.240   1.2567   0.01730   0.01278  -0.0404  0.4174  0.7694
   9.270   1.2593   0.01734   0.01281  -0.0404  0.4172  0.7696
   9.280   1.2602   0.01735   0.01283  -0.0404  0.4169  0.7697
   9.290   1.2610   0.01736   0.01284  -0.0404  0.4167  0.7697
   9.300   1.2618   0.01737   0.01286  -0.0404  0.4171  0.7698
   9.310   1.2626   0.01739   0.01287  -0.0404  0.4165  0.7698
   9.320   1.2634   0.01740   0.01288  -0.0404  0.4165  0.7698
   9.330   1.2642   0.01741   0.01290  -0.0404  0.4167  0.7699
   9.340   1.2650   0.01743   0.01291  -0.0404  0.4165  0.7700
   9.350   1.2659   0.01744   0.01292  -0.0404  0.4163  0.7700
   9.360   1.2667   0.01745   0.01294  -0.0404  0.4160  0.7701
   9.370   1.2676   0.01746   0.01295  -0.0404  0.4161  0.7701
   9.380   1.2684   0.01748   0.01297  -0.0404  0.4156  0.7702
   9.390   1.2691   0.01749   0.01298  -0.0404  0.4155  0.7703
   9.400   1.2700   0.01750   0.01300  -0.0404  0.4157  0.7703
   9.410   1.2704   0.01753   0.01302  -0.0403  0.4143  0.7704
   9.420   1.2715   0.01754   0.01303  -0.0404  0.4150  0.7704
   9.430   1.2723   0.01755   0.01304  -0.0404  0.4148  0.7705
   9.440   1.2731   0.01756   0.01306  -0.0403  0.4146  0.7705
   9.450   1.2738   0.01758   0.01308  -0.0403  0.4145  0.7706
   9.460   1.2746   0.01760   0.01309  -0.0403  0.4145  0.7706
   9.470   1.2753   0.01761   0.01311  -0.0403  0.4143  0.7707
   9.480   1.2761   0.01762   0.01312  -0.0403  0.4144  0.7708
   9.490   1.2770   0.01764   0.01313  -0.0403  0.4142  0.7708
   9.500   1.2774   0.01766   0.01316  -0.0403  0.4137  0.7708
   9.510   1.2783   0.01767   0.01317  -0.0403  0.4137  0.7709
   9.520   1.2789   0.01770   0.01319  -0.0402  0.4132  0.7710
   9.530   1.2799   0.01770   0.01320  -0.0402  0.4135  0.7710
   9.540   1.2804   0.01773   0.01323  -0.0402  0.4129  0.7711
   9.550   1.2814   0.01773   0.01323  -0.0402  0.4133  0.7711
   9.560   1.2816   0.01777   0.01327  -0.0401  0.4123  0.7712
   9.570   1.2827   0.01777   0.01327  -0.0402  0.4127  0.7713
   9.580   1.2833   0.01779   0.01329  -0.0401  0.4124  0.7713
   9.590   1.2840   0.01781   0.01331  -0.0401  0.4122  0.7714
   9.600   1.2844   0.01784   0.01334  -0.0401  0.4118  0.7714
   9.610   1.2854   0.01785   0.01334  -0.0401  0.4119  0.7715
   9.620   1.2857   0.01788   0.01337  -0.0400  0.4113  0.7715
   9.630   1.2862   0.01791   0.01340  -0.0399  0.4110  0.7716
   9.640   1.2869   0.01792   0.01341  -0.0399  0.4109  0.7716
   9.650   1.2882   0.01792   0.01341  -0.0400  0.4113  0.7717
   9.660   1.2887   0.01795   0.01344  -0.0399  0.4110  0.7717
   9.670   1.2890   0.01798   0.01347  -0.0399  0.4105  0.7718
   9.680   1.2893   0.01801   0.01350  -0.0398  0.4101  0.7719
   9.690   1.2903   0.01801   0.01351  -0.0398  0.4103  0.7719
