  
       XFOIL         Version 6.94
  
 Calculated polar for: 1080                                            
  
 1 1 Reynolds number fixed          Mach number fixed         
  
 xtrf =   1.000 (top)        1.000 (bottom)  
 Mach =   0.000     Re =     2.000 e 6     Ncrit =   9.000
  
  alpha     CL        CD       CDp       CM    Top_Xtr Bot_Xtr
 ------- -------- --------- --------- -------- ------- -------
   6.000   1.0957   0.00768   0.00309  -0.0661  0.4323  0.7339
   6.010   1.0968   0.00768   0.00309  -0.0661  0.4325  0.7340
   6.020   1.0978   0.00768   0.00310  -0.0661  0.4326  0.7341
   6.030   1.0981   0.00770   0.00310  -0.0659  0.4292  0.7341
   6.040   1.0993   0.00770   0.00311  -0.0660  0.4316  0.7342
   6.050   1.1003   0.00770   0.00311  -0.0660  0.4317  0.7343
   6.060   1.1013   0.00770   0.00311  -0.0660  0.4312  0.7343
   6.070   1.1022   0.00771   0.00312  -0.0659  0.4302  0.7344
   6.080   1.1030   0.00771   0.00312  -0.0659  0.4294  0.7345
   6.090   1.1041   0.00771   0.00312  -0.0659  0.4301  0.7345
   6.100   1.1050   0.00772   0.00313  -0.0659  0.4293  0.7346
   6.110   1.1060   0.00772   0.00313  -0.0659  0.4296  0.7346
   6.120   1.1071   0.00772   0.00313  -0.0659  0.4304  0.7347
   6.130   1.1075   0.00773   0.00314  -0.0658  0.4279  0.7348
   6.140   1.1090   0.00772   0.00314  -0.0658  0.4298  0.7349
   6.150   1.1094   0.00774   0.00315  -0.0657  0.4277  0.7349
   6.160   1.1104   0.00774   0.00315  -0.0657  0.4277  0.7350
   6.170   1.1113   0.00775   0.00316  -0.0657  0.4273  0.7350
   6.180   1.1121   0.00775   0.00316  -0.0656  0.4269  0.7351
   6.190   1.1125   0.00777   0.00317  -0.0655  0.4257  0.7352
   6.200   1.1147   0.00774   0.00316  -0.0657  0.4287  0.7352
   6.210   1.1154   0.00775   0.00317  -0.0657  0.4277  0.7353
   6.220   1.1162   0.00776   0.00317  -0.0656  0.4271  0.7353
   6.230   1.1174   0.00775   0.00318  -0.0657  0.4281  0.7354
   6.240   1.1165   0.00780   0.00320  -0.0653  0.4241  0.7355
   6.250   1.1187   0.00777   0.00319  -0.0655  0.4262  0.7355
   6.260   1.1200   0.00777   0.00319  -0.0656  0.4268  0.7356
   6.270   1.1210   0.00777   0.00319  -0.0656  0.4269  0.7357
   6.280   1.1214   0.00779   0.00320  -0.0654  0.4257  0.7357
   6.290   1.1186   0.00788   0.00324  -0.0647  0.4179  0.7358
   6.300   1.1209   0.00785   0.00324  -0.0649  0.4223  0.7359
   6.310   1.1247   0.00779   0.00321  -0.0655  0.4265  0.7359
   6.320   1.1249   0.00781   0.00322  -0.0653  0.4249  0.7360
   6.330   1.1232   0.00787   0.00325  -0.0648  0.4204  0.7361
   6.340   1.1262   0.00783   0.00324  -0.0652  0.4240  0.7361
   6.350   1.1274   0.00782   0.00324  -0.0652  0.4244  0.7362
   6.360   1.1286   0.00782   0.00324  -0.0652  0.4246  0.7362
   6.370   1.1249   0.00793   0.00329  -0.0643  0.4148  0.7364
   6.380   1.1280   0.00789   0.00327  -0.0647  0.4202  0.7364
   6.390   1.1306   0.00785   0.00326  -0.0650  0.4233  0.7364
   6.400   1.1314   0.00786   0.00327  -0.0650  0.4232  0.7365
   6.410   1.1311   0.00789   0.00329  -0.0647  0.4206  0.7366
   6.420   1.1329   0.00787   0.00328  -0.0648  0.4227  0.7366
   6.430   1.1337   0.00788   0.00329  -0.0648  0.4224  0.7367
   6.440   1.1338   0.00791   0.00330  -0.0646  0.4194  0.7368
   6.450   1.1326   0.00796   0.00333  -0.0642  0.4147  0.7369
   6.460   1.1334   0.00797   0.00333  -0.0642  0.4144  0.7369
   6.470   1.1357   0.00794   0.00332  -0.0644  0.4166  0.7370
   6.480   1.1358   0.00796   0.00334  -0.0642  0.4151  0.7371
   6.490   1.1385   0.00793   0.00332  -0.0645  0.4190  0.7371
   6.500   1.1399   0.00792   0.00332  -0.0646  0.4211  0.7371
   6.510   1.1409   0.00792   0.00333  -0.0646  0.4207  0.7372
   6.520   1.1419   0.00792   0.00333  -0.0646  0.4212  0.7373
   6.530   1.1427   0.00793   0.00334  -0.0645  0.4202  0.7373
   6.540   1.1429   0.00795   0.00335  -0.0644  0.4177  0.7374
   6.550   1.1409   0.00803   0.00339  -0.0638  0.4128  0.7375
   6.560   1.1455   0.00794   0.00335  -0.0645  0.4195  0.7375
   6.570   1.1453   0.00797   0.00337  -0.0642  0.4164  0.7376
   6.580   1.1466   0.00797   0.00337  -0.0643  0.4170  0.7376
   6.590   1.1434   0.00807   0.00342  -0.0635  0.4097  0.7378
   6.600   1.1444   0.00807   0.00342  -0.0635  0.4100  0.7378
   6.610   1.1456   0.00807   0.00343  -0.0635  0.4106  0.7379
   6.620   1.1483   0.00803   0.00341  -0.0638  0.4135  0.7379
   6.630   1.1513   0.00799   0.00339  -0.0642  0.4167  0.7380
   6.640   1.1521   0.00800   0.00340  -0.0642  0.4163  0.7380
   6.650   1.1507   0.00805   0.00343  -0.0637  0.4129  0.7381
   6.660   1.1538   0.00801   0.00341  -0.0641  0.4158  0.7382
   6.670   1.1507   0.00811   0.00346  -0.0633  0.4084  0.7383
   6.680   1.1522   0.00810   0.00346  -0.0634  0.4099  0.7383
   6.690   1.1535   0.00809   0.00346  -0.0634  0.4114  0.7384
   6.700   1.1538   0.00812   0.00347  -0.0633  0.4088  0.7385
   6.710   1.1543   0.00813   0.00348  -0.0632  0.4077  0.7385
   6.720   1.1561   0.00811   0.00348  -0.0634  0.4101  0.7386
   6.730   1.1571   0.00811   0.00348  -0.0633  0.4102  0.7386
   6.740   1.1570   0.00815   0.00350  -0.0631  0.4070  0.7387
   6.750   1.1584   0.00814   0.00350  -0.0632  0.4081  0.7388
   6.760   1.1603   0.00812   0.00349  -0.0634  0.4113  0.7388
   6.770   1.1611   0.00813   0.00350  -0.0633  0.4102  0.7389
   6.780   1.1598   0.00819   0.00353  -0.0629  0.4050  0.7390
   6.790   1.1629   0.00814   0.00351  -0.0633  0.4099  0.7390
   6.800   1.1635   0.00815   0.00352  -0.0632  0.4086  0.7391
   6.810   1.1646   0.00815   0.00352  -0.0632  0.4091  0.7391
   6.820   1.1649   0.00817   0.00353  -0.0631  0.4074  0.7392
   6.830   1.1670   0.00815   0.00353  -0.0633  0.4105  0.7393
   6.840   1.1681   0.00815   0.00353  -0.0633  0.4112  0.7393
   6.850   1.1687   0.00816   0.00354  -0.0632  0.4097  0.7394
   6.860   1.1583   0.00845   0.00370  -0.0610  0.3890  0.7396
   6.870   1.1678   0.00824   0.00358  -0.0626  0.4039  0.7396
   6.880   1.1671   0.00828   0.00361  -0.0623  0.4020  0.7396
   6.890   1.1704   0.00823   0.00358  -0.0627  0.4049  0.7397
   6.900   1.1713   0.00823   0.00359  -0.0627  0.4048  0.7397
   6.910   1.1705   0.00828   0.00362  -0.0624  0.4025  0.7398
   6.920   1.1703   0.00831   0.00364  -0.0621  0.4002  0.7399
   6.930   1.1696   0.00836   0.00367  -0.0618  0.3963  0.7400
   6.940   1.1707   0.00836   0.00367  -0.0618  0.3964  0.7400
   6.950   1.1685   0.00844   0.00372  -0.0612  0.3922  0.7401
   6.960   1.1738   0.00834   0.00366  -0.0620  0.3989  0.7401
   6.970   1.1748   0.00834   0.00367  -0.0620  0.3991  0.7402
   6.980   1.1657   0.00860   0.00382  -0.0601  0.3827  0.7404
   6.990   1.1730   0.00844   0.00373  -0.0613  0.3928  0.7404
   7.000   1.1778   0.00835   0.00368  -0.0620  0.3993  0.7404
   7.010   1.1747   0.00845   0.00374  -0.0612  0.3926  0.7405
   7.020   1.1704   0.00859   0.00382  -0.0602  0.3837  0.7406
   7.030   1.1695   0.00864   0.00386  -0.0599  0.3817  0.7407
   7.040   1.1693   0.00867   0.00388  -0.0596  0.3792  0.7408
   7.050   1.1779   0.00849   0.00377  -0.0610  0.3919  0.7407
   7.060   1.1696   0.00872   0.00391  -0.0593  0.3765  0.7409
   7.070   1.1672   0.00881   0.00397  -0.0587  0.3722  0.7410
   7.080   1.1775   0.00858   0.00383  -0.0604  0.3856  0.7410
   7.090   1.1779   0.00860   0.00384  -0.0603  0.3847  0.7410
   7.100   1.1817   0.00853   0.00381  -0.0608  0.3898  0.7411
   7.110   1.1792   0.00862   0.00386  -0.0601  0.3840  0.7412
   7.120   1.1790   0.00865   0.00389  -0.0599  0.3826  0.7412
   7.130   1.1723   0.00885   0.00401  -0.0585  0.3715  0.7414
   7.140   1.1784   0.00872   0.00393  -0.0594  0.3785  0.7414
   7.150   1.1807   0.00869   0.00392  -0.0597  0.3815  0.7414
   7.160   1.1773   0.00881   0.00399  -0.0588  0.3738  0.7415
   7.170   1.1685   0.00906   0.00416  -0.0570  0.3603  0.7417
   7.180   1.1796   0.00880   0.00400  -0.0589  0.3744  0.7416
   7.190   1.1799   0.00883   0.00401  -0.0588  0.3736  0.7417
   7.200   1.1779   0.00891   0.00406  -0.0582  0.3694  0.7418
   7.210   1.1733   0.00905   0.00416  -0.0572  0.3620  0.7419
   7.220   1.1796   0.00892   0.00408  -0.0581  0.3691  0.7419
   7.230   1.1812   0.00891   0.00407  -0.0583  0.3704  0.7419
   7.240   1.1738   0.00912   0.00422  -0.0567  0.3582  0.7421
   7.250   1.1702   0.00924   0.00430  -0.0559  0.3526  0.7422
   7.260   1.1704   0.00927   0.00432  -0.0557  0.3520  0.7423
   7.270   1.1884   0.00883   0.00404  -0.0588  0.3748  0.7421
   7.280   1.1669   0.00941   0.00442  -0.0547  0.3444  0.7424
   7.290   1.1758   0.00921   0.00429  -0.0562  0.3546  0.7424
   7.300   1.1720   0.00934   0.00437  -0.0553  0.3487  0.7425
   7.310   1.1749   0.00929   0.00435  -0.0556  0.3518  0.7425
   7.320   1.1658   0.00956   0.00453  -0.0538  0.3385  0.7427
   7.330   1.1830   0.00914   0.00425  -0.0567  0.3596  0.7426
   7.340   1.1761   0.00935   0.00439  -0.0553  0.3493  0.7427
   7.350   1.1772   0.00935   0.00439  -0.0553  0.3495  0.7427
   7.370   1.1808   0.00931   0.00437  -0.0556  0.3522  0.7428
   7.380   1.1924   0.00905   0.00420  -0.0575  0.3655  0.7428
   7.390   1.1871   0.00921   0.00431  -0.0563  0.3573  0.7429
