  
       XFOIL         Version 6.94
  
 Calculated polar for: 1080                                            
  
 1 1 Reynolds number fixed          Mach number fixed         
  
 xtrf =   1.000 (top)        1.000 (bottom)  
 Mach =   0.000     Re =     2.000 e 6     Ncrit =   9.000
  
  alpha     CL        CD       CDp       CM    Top_Xtr Bot_Xtr
 ------- -------- --------- --------- -------- ------- -------
   6.000   0.8794   0.01194   0.00744  -0.0254  0.4636  0.7516
   6.010   0.8803   0.01194   0.00744  -0.0254  0.4636  0.7516
   6.020   0.8812   0.01195   0.00745  -0.0254  0.4635  0.7517
   6.030   0.8821   0.01196   0.00746  -0.0254  0.4634  0.7517
   6.040   0.8830   0.01197   0.00747  -0.0254  0.4633  0.7518
   6.050   0.8838   0.01198   0.00748  -0.0254  0.4631  0.7518
   6.060   0.8847   0.01198   0.00749  -0.0254  0.4633  0.7519
   6.070   0.8856   0.01199   0.00750  -0.0253  0.4630  0.7519
   6.080   0.8864   0.01200   0.00750  -0.0253  0.4629  0.7520
   6.090   0.8874   0.01201   0.00751  -0.0253  0.4627  0.7520
   6.100   0.8882   0.01202   0.00752  -0.0253  0.4627  0.7520
   6.110   0.8891   0.01203   0.00753  -0.0253  0.4626  0.7521
   6.120   0.8899   0.01204   0.00754  -0.0253  0.4622  0.7522
   6.130   0.8908   0.01204   0.00755  -0.0253  0.4624  0.7522
   6.140   0.8915   0.01206   0.00756  -0.0252  0.4620  0.7522
   6.150   0.8926   0.01206   0.00757  -0.0253  0.4622  0.7523
   6.160   0.8934   0.01207   0.00757  -0.0252  0.4622  0.7524
   6.170   0.8942   0.01208   0.00759  -0.0252  0.4619  0.7524
   6.180   0.8951   0.01209   0.00759  -0.0252  0.4619  0.7525
   6.190   0.8959   0.01210   0.00760  -0.0252  0.4617  0.7526
   6.200   0.8967   0.01211   0.00761  -0.0252  0.4617  0.7526
   6.210   0.8976   0.01212   0.00762  -0.0252  0.4615  0.7526
   6.220   0.8985   0.01213   0.00763  -0.0252  0.4616  0.7527
   6.230   0.8993   0.01214   0.00764  -0.0251  0.4614  0.7528
   6.240   0.9001   0.01215   0.00765  -0.0251  0.4611  0.7528
   6.250   0.9009   0.01216   0.00766  -0.0251  0.4612  0.7528
   6.260   0.9017   0.01217   0.00767  -0.0251  0.4610  0.7529
   6.270   0.9027   0.01217   0.00768  -0.0251  0.4609  0.7530
   6.280   0.9035   0.01218   0.00769  -0.0251  0.4609  0.7530
   6.290   0.9043   0.01220   0.00770  -0.0250  0.4607  0.7531
   6.300   0.9051   0.01220   0.00771  -0.0250  0.4607  0.7532
   6.310   0.9059   0.01221   0.00772  -0.0250  0.4606  0.7532
   6.320   0.9066   0.01223   0.00773  -0.0250  0.4603  0.7533
   6.330   0.9075   0.01224   0.00774  -0.0249  0.4602  0.7533
   6.340   0.9081   0.01225   0.00775  -0.0249  0.4598  0.7534
   6.350   0.9089   0.01227   0.00776  -0.0249  0.4596  0.7534
   6.360   0.9099   0.01227   0.00777  -0.0249  0.4599  0.7535
   6.370   0.9109   0.01228   0.00778  -0.0249  0.4599  0.7535
   6.380   0.9116   0.01229   0.00779  -0.0249  0.4597  0.7536
   6.390   0.9125   0.01230   0.00780  -0.0248  0.4597  0.7537
   6.400   0.9133   0.01231   0.00781  -0.0248  0.4596  0.7537
   6.410   0.9141   0.01232   0.00782  -0.0248  0.4595  0.7537
   6.420   0.9146   0.01234   0.00783  -0.0247  0.4591  0.7539
   6.430   0.9157   0.01234   0.00784  -0.0248  0.4592  0.7538
   6.440   0.9161   0.01236   0.00786  -0.0247  0.4587  0.7539
   6.450   0.9172   0.01236   0.00786  -0.0247  0.4590  0.7539
   6.460   0.9180   0.01237   0.00787  -0.0247  0.4589  0.7540
   6.470   0.9188   0.01238   0.00788  -0.0247  0.4587  0.7541
   6.480   0.9195   0.01240   0.00790  -0.0246  0.4585  0.7541
   6.490   0.9201   0.01242   0.00791  -0.0246  0.4582  0.7542
   6.500   0.9212   0.01242   0.00791  -0.0246  0.4585  0.7542
   6.510   0.9215   0.01244   0.00793  -0.0245  0.4580  0.7543
   6.520   0.9224   0.01245   0.00794  -0.0245  0.4579  0.7543
   6.530   0.9231   0.01246   0.00796  -0.0244  0.4578  0.7544
   6.540   0.9237   0.01248   0.00797  -0.0244  0.4576  0.7544
   6.550   0.9248   0.01248   0.00797  -0.0244  0.4577  0.7545
   6.560   0.9256   0.01249   0.00798  -0.0244  0.4576  0.7546
   6.570   0.9262   0.01251   0.00800  -0.0243  0.4574  0.7546
   6.580   0.9271   0.01252   0.00801  -0.0243  0.4574  0.7547
   6.590   0.9281   0.01252   0.00801  -0.0244  0.4575  0.7547
   6.600   0.9287   0.01254   0.00803  -0.0243  0.4573  0.7548
   6.610   0.9293   0.01256   0.00804  -0.0243  0.4570  0.7548
   6.620   0.9300   0.01257   0.00806  -0.0242  0.4569  0.7549
   6.630   0.9305   0.01259   0.00807  -0.0241  0.4566  0.7550
   6.640   0.9312   0.01261   0.00809  -0.0241  0.4565  0.7549
   6.650   0.9320   0.01262   0.00810  -0.0241  0.4564  0.7550
   6.660   0.9329   0.01262   0.00810  -0.0241  0.4564  0.7551
   6.670   0.9334   0.01265   0.00812  -0.0240  0.4562  0.7551
   6.680   0.9342   0.01265   0.00813  -0.0240  0.4561  0.7552
   6.690   0.9348   0.01267   0.00815  -0.0239  0.4559  0.7552
   6.700   0.9357   0.01268   0.00816  -0.0239  0.4560  0.7553
   6.710   0.9367   0.01269   0.00816  -0.0239  0.4559  0.7553
   6.720   0.9369   0.01271   0.00819  -0.0238  0.4556  0.7554
   6.730   0.9379   0.01272   0.00820  -0.0238  0.4556  0.7554
   6.740   0.9381   0.01275   0.00822  -0.0237  0.4553  0.7555
   6.750   0.9388   0.01276   0.00823  -0.0237  0.4552  0.7555
   6.760   0.9402   0.01276   0.00823  -0.0237  0.4554  0.7555
   6.770   0.9403   0.01279   0.00826  -0.0236  0.4550  0.7556
   6.780   0.9411   0.01280   0.00827  -0.0236  0.4549  0.7557
   6.790   0.9420   0.01281   0.00828  -0.0236  0.4548  0.7557
   6.800   0.9430   0.01281   0.00828  -0.0236  0.4547  0.7557
   6.810   0.9440   0.01282   0.00829  -0.0236  0.4546  0.7558
   6.820   0.9448   0.01283   0.00830  -0.0236  0.4546  0.7558
   6.830   0.9456   0.01284   0.00831  -0.0236  0.4546  0.7559
   6.840   0.9467   0.01284   0.00832  -0.0236  0.4544  0.7559
   6.850   0.9476   0.01285   0.00833  -0.0236  0.4543  0.7559
   6.860   0.9485   0.01286   0.00833  -0.0236  0.4542  0.7560
   6.870   0.9493   0.01287   0.00834  -0.0236  0.4542  0.7560
   6.880   0.9504   0.01288   0.00835  -0.0236  0.4540  0.7561
   6.890   0.9512   0.01289   0.00836  -0.0236  0.4539  0.7561
   6.900   0.9522   0.01289   0.00837  -0.0236  0.4538  0.7562
   6.910   0.9531   0.01290   0.00838  -0.0236  0.4537  0.7562
   6.950   0.9566   0.01293   0.00841  -0.0236  0.4534  0.7565
   6.960   0.9575   0.01294   0.00842  -0.0236  0.4533  0.7565
   6.970   0.9584   0.01294   0.00843  -0.0236  0.4532  0.7566
   6.980   0.9592   0.01295   0.00844  -0.0235  0.4530  0.7567
   6.990   0.9601   0.01296   0.00845  -0.0235  0.4529  0.7567
   7.000   0.9609   0.01297   0.00846  -0.0235  0.4529  0.7568
   7.010   0.9618   0.01298   0.00847  -0.0235  0.4529  0.7569
   7.020   0.9627   0.01299   0.00848  -0.0235  0.4527  0.7569
   7.030   0.9635   0.01300   0.00849  -0.0235  0.4524  0.7570
   7.040   0.9644   0.01300   0.00850  -0.0235  0.4524  0.7570
   7.050   0.9652   0.01301   0.00851  -0.0235  0.4523  0.7571
   7.060   0.9661   0.01302   0.00852  -0.0235  0.4522  0.7572
   7.070   0.9669   0.01303   0.00853  -0.0234  0.4521  0.7572
   7.080   0.9677   0.01304   0.00854  -0.0234  0.4519  0.7574
   7.090   0.9686   0.01305   0.00855  -0.0234  0.4519  0.7574
   7.100   0.9694   0.01306   0.00856  -0.0234  0.4515  0.7575
   7.110   0.9701   0.01307   0.00857  -0.0234  0.4514  0.7575
   7.120   0.9711   0.01308   0.00858  -0.0234  0.4516  0.7576
   7.130   0.9718   0.01309   0.00859  -0.0233  0.4514  0.7577
   7.140   0.9727   0.01310   0.00860  -0.0233  0.4513  0.7577
   7.150   0.9735   0.01311   0.00861  -0.0233  0.4512  0.7578
   7.160   0.9744   0.01312   0.00862  -0.0233  0.4509  0.7578
   7.170   0.9752   0.01313   0.00863  -0.0233  0.4509  0.7579
   7.180   0.9758   0.01314   0.00865  -0.0232  0.4504  0.7580
   7.190   0.9768   0.01315   0.00865  -0.0233  0.4507  0.7580
   7.200   0.9774   0.01316   0.00867  -0.0232  0.4502  0.7581
   7.210   0.9784   0.01317   0.00868  -0.0232  0.4502  0.7581
   7.220   0.9793   0.01318   0.00868  -0.0232  0.4503  0.7582
   7.230   0.9799   0.01319   0.00870  -0.0232  0.4499  0.7582
   7.240   0.9809   0.01320   0.00871  -0.0232  0.4500  0.7583
   7.250   0.9814   0.01321   0.00872  -0.0231  0.4495  0.7584
   7.260   0.9824   0.01322   0.00873  -0.0231  0.4496  0.7584
   7.270   0.9830   0.01324   0.00874  -0.0231  0.4493  0.7585
   7.280   0.9840   0.01325   0.00875  -0.0231  0.4493  0.7585
   7.290   0.9848   0.01325   0.00876  -0.0231  0.4493  0.7586
   7.300   0.9855   0.01327   0.00878  -0.0230  0.4491  0.7586
   7.310   0.9862   0.01328   0.00879  -0.0230  0.4489  0.7587
   7.320   0.9870   0.01329   0.00880  -0.0230  0.4487  0.7588
   7.330   0.9877   0.01330   0.00881  -0.0229  0.4485  0.7588
   7.340   0.9885   0.01331   0.00883  -0.0229  0.4485  0.7589
   7.350   0.9893   0.01333   0.00884  -0.0229  0.4483  0.7589
   7.360   0.9903   0.01333   0.00884  -0.0229  0.4485  0.7590
   7.370   0.9906   0.01336   0.00887  -0.0228  0.4479  0.7591
   7.380   0.9918   0.01336   0.00887  -0.0228  0.4482  0.7591
   7.390   0.9924   0.01337   0.00888  -0.0228  0.4479  0.7592
   7.400   0.9932   0.01339   0.00890  -0.0228  0.4477  0.7592
   7.410   0.9939   0.01340   0.00891  -0.0228  0.4476  0.7593
   7.420   0.9945   0.01342   0.00893  -0.0227  0.4473  0.7593
   7.430   0.9951   0.01343   0.00894  -0.0227  0.4472  0.7594
   7.440   0.9960   0.01344   0.00895  -0.0226  0.4471  0.7594
   7.450   0.9967   0.01345   0.00896  -0.0226  0.4470  0.7595
   7.460   0.9977   0.01346   0.00897  -0.0226  0.4471  0.7596
   7.470   0.9979   0.01349   0.00900  -0.0225  0.4464  0.7596
   7.480   0.9991   0.01349   0.00900  -0.0226  0.4467  0.7597
   7.490   0.9994   0.01352   0.00902  -0.0224  0.4463  0.7597
   7.500   1.0002   0.01352   0.00903  -0.0224  0.4463  0.7598
   7.510   1.0011   0.01353   0.00904  -0.0224  0.4463  0.7598
   7.520   1.0016   0.01356   0.00906  -0.0224  0.4460  0.7599
   7.530   1.0026   0.01356   0.00907  -0.0224  0.4461  0.7600
   7.540   1.0029   0.01359   0.00909  -0.0223  0.4457  0.7600
   7.550   1.0044   0.01358   0.00909  -0.0224  0.4461  0.7601
   7.560   1.0038   0.01363   0.00913  -0.0221  0.4451  0.7601
   7.570   1.0048   0.01363   0.00914  -0.0221  0.4453  0.7602
   7.580   1.0055   0.01365   0.00915  -0.0221  0.4451  0.7602
   7.590   1.0058   0.01368   0.00918  -0.0220  0.4447  0.7603
   7.600   1.0066   0.01369   0.00919  -0.0220  0.4447  0.7604
   7.610   1.0068   0.01372   0.00922  -0.0219  0.4444  0.7604
   7.620   1.0080   0.01372   0.00922  -0.0219  0.4445  0.7605
   7.630   1.0084   0.01374   0.00924  -0.0218  0.4443  0.7606
   7.640   1.0093   0.01375   0.00925  -0.0218  0.4443  0.7606
   7.650   1.0099   0.01377   0.00927  -0.0218  0.4442  0.7607
   7.660   1.0107   0.01378   0.00928  -0.0218  0.4441  0.7607
   7.670   1.0116   0.01379   0.00929  -0.0218  0.4440  0.7608
   7.680   1.0126   0.01379   0.00930  -0.0218  0.4438  0.7608
   7.690   1.0136   0.01380   0.00930  -0.0218  0.4435  0.7609
   7.700   1.0144   0.01381   0.00931  -0.0218  0.4436  0.7609
   7.710   1.0152   0.01382   0.00933  -0.0218  0.4435  0.7610
   7.720   1.0162   0.01383   0.00934  -0.0218  0.4435  0.7611
   7.730   1.0171   0.01384   0.00935  -0.0218  0.4432  0.7611
   7.740   1.0180   0.01384   0.00935  -0.0218  0.4429  0.7612
   7.750   1.0188   0.01386   0.00937  -0.0218  0.4430  0.7612
   7.760   1.0198   0.01386   0.00937  -0.0218  0.4427  0.7613
   7.770   1.0206   0.01387   0.00939  -0.0217  0.4427  0.7613
   7.780   1.0214   0.01388   0.00940  -0.0217  0.4427  0.7614
   7.790   1.0223   0.01389   0.00941  -0.0217  0.4422  0.7614
   7.800   1.0232   0.01390   0.00942  -0.0217  0.4422  0.7615
   7.810   1.0240   0.01391   0.00943  -0.0217  0.4423  0.7615
   7.820   1.0248   0.01392   0.00944  -0.0217  0.4419  0.7616
   7.830   1.0257   0.01394   0.00945  -0.0217  0.4417  0.7616
   7.840   1.0265   0.01394   0.00946  -0.0217  0.4422  0.7617
   7.850   1.0273   0.01396   0.00948  -0.0217  0.4415  0.7618
   7.860   1.0281   0.01397   0.00949  -0.0217  0.4415  0.7618
   7.870   1.0291   0.01398   0.00950  -0.0217  0.4412  0.7619
   7.880   1.0298   0.01399   0.00951  -0.0216  0.4414  0.7619
   7.890   1.0307   0.01400   0.00952  -0.0216  0.4410  0.7620
   7.900   1.0314   0.01401   0.00953  -0.0216  0.4407  0.7621
   7.910   1.0321   0.01403   0.00955  -0.0216  0.4405  0.7621
   7.920   1.0331   0.01403   0.00956  -0.0216  0.4405  0.7621
   7.930   1.0338   0.01405   0.00957  -0.0216  0.4403  0.7622
   7.940   1.0349   0.01405   0.00958  -0.0216  0.4405  0.7623
   7.950   1.0354   0.01407   0.00959  -0.0215  0.4400  0.7623
   7.960   1.0362   0.01408   0.00961  -0.0215  0.4399  0.7624
   7.970   1.0371   0.01409   0.00962  -0.0215  0.4399  0.7624
   7.980   1.0380   0.01410   0.00963  -0.0215  0.4400  0.7625
   7.990   1.0387   0.01412   0.00964  -0.0215  0.4395  0.7625
   8.000   1.0393   0.01413   0.00966  -0.0214  0.4392  0.7626
   8.010   1.0404   0.01414   0.00966  -0.0215  0.4394  0.7627
   8.020   1.0411   0.01415   0.00967  -0.0214  0.4393  0.7627
   8.030   1.0416   0.01417   0.00970  -0.0214  0.4386  0.7628
   8.040   1.0424   0.01419   0.00971  -0.0213  0.4386  0.7628
   8.050   1.0433   0.01419   0.00972  -0.0213  0.4387  0.7629
   8.060   1.0439   0.01421   0.00974  -0.0213  0.4382  0.7629
   8.070   1.0448   0.01422   0.00974  -0.0213  0.4384  0.7630
   8.080   1.0456   0.01423   0.00976  -0.0213  0.4381  0.7631
   8.090   1.0465   0.01424   0.00977  -0.0213  0.4383  0.7631
   8.100   1.0471   0.01426   0.00978  -0.0212  0.4379  0.7632
   8.110   1.0477   0.01428   0.00980  -0.0212  0.4375  0.7632
   8.120   1.0485   0.01429   0.00981  -0.0212  0.4375  0.7633
   8.130   1.0493   0.01430   0.00982  -0.0212  0.4375  0.7633
   8.140   1.0498   0.01432   0.00984  -0.0211  0.4371  0.7634
   8.150   1.0505   0.01434   0.00986  -0.0211  0.4369  0.7635
   8.160   1.0507   0.01437   0.00989  -0.0209  0.4363  0.7635
   8.170   1.0521   0.01436   0.00988  -0.0210  0.4367  0.7635
   8.180   1.0527   0.01438   0.00990  -0.0210  0.4365  0.7636
   8.190   1.0533   0.01440   0.00992  -0.0209  0.4362  0.7637
   8.200   1.0541   0.01441   0.00993  -0.0209  0.4362  0.7637
   8.210   1.0546   0.01443   0.00995  -0.0208  0.4359  0.7638
   8.220   1.0554   0.01445   0.00996  -0.0208  0.4358  0.7638
   8.230   1.0561   0.01446   0.00998  -0.0208  0.4357  0.7639
   8.240   1.0567   0.01448   0.00999  -0.0207  0.4354  0.7639
   8.250   1.0573   0.01450   0.01001  -0.0207  0.4353  0.7640
   8.260   1.0581   0.01451   0.01002  -0.0207  0.4352  0.7641
   8.270   1.0587   0.01453   0.01004  -0.0206  0.4350  0.7641
   8.280   1.0594   0.01455   0.01006  -0.0206  0.4348  0.7642
   8.290   1.0602   0.01456   0.01007  -0.0206  0.4348  0.7642
   8.300   1.0604   0.01459   0.01010  -0.0205  0.4344  0.7643
   8.310   1.0612   0.01460   0.01011  -0.0205  0.4343  0.7643
   8.320   1.0619   0.01462   0.01013  -0.0204  0.4341  0.7644
   8.330   1.0624   0.01464   0.01014  -0.0204  0.4340  0.7644
   8.340   1.0629   0.01466   0.01017  -0.0203  0.4338  0.7645
   8.350   1.0637   0.01467   0.01018  -0.0203  0.4337  0.7646
   8.360   1.0641   0.01470   0.01020  -0.0202  0.4334  0.7646
   8.370   1.0651   0.01471   0.01021  -0.0202  0.4334  0.7646
   8.380   1.0660   0.01471   0.01022  -0.0202  0.4332  0.7647
   8.390   1.0668   0.01473   0.01023  -0.0202  0.4331  0.7648
   8.400   1.0676   0.01474   0.01024  -0.0202  0.4329  0.7648
   8.410   1.0687   0.01474   0.01025  -0.0202  0.4329  0.7649
   8.420   1.0694   0.01476   0.01026  -0.0202  0.4328  0.7649
   8.430   1.0704   0.01476   0.01027  -0.0202  0.4326  0.7650
   8.440   1.0712   0.01478   0.01029  -0.0202  0.4314  0.7650
   8.450   1.0720   0.01479   0.01030  -0.0202  0.4323  0.7651
   8.460   1.0730   0.01479   0.01031  -0.0202  0.4322  0.7651
   8.470   1.0736   0.01481   0.01032  -0.0202  0.4320  0.7652
   8.480   1.0746   0.01482   0.01033  -0.0202  0.4314  0.7652
   8.490   1.0753   0.01483   0.01035  -0.0202  0.4316  0.7652
   8.500   1.0763   0.01484   0.01035  -0.0202  0.4315  0.7653
   8.510   1.0770   0.01486   0.01037  -0.0201  0.4314  0.7653
   8.520   1.0778   0.01487   0.01038  -0.0201  0.4313  0.7654
   8.530   1.0785   0.01488   0.01040  -0.0201  0.4309  0.7654
   8.540   1.0795   0.01489   0.01040  -0.0201  0.4310  0.7655
   8.550   1.0803   0.01490   0.01042  -0.0201  0.4308  0.7655
   8.560   1.0807   0.01493   0.01044  -0.0200  0.4298  0.7656
   8.570   1.0819   0.01493   0.01045  -0.0201  0.4304  0.7656
   8.580   1.0827   0.01494   0.01046  -0.0201  0.4302  0.7656
   8.590   1.0834   0.01496   0.01047  -0.0200  0.4300  0.7657
   8.600   1.0842   0.01497   0.01049  -0.0200  0.4298  0.7657
   8.610   1.0849   0.01498   0.01050  -0.0200  0.4296  0.7658
   8.620   1.0856   0.01500   0.01052  -0.0200  0.4295  0.7658
   8.630   1.0863   0.01502   0.01053  -0.0199  0.4291  0.7659
   8.640   1.0871   0.01503   0.01055  -0.0199  0.4291  0.7659
   8.650   1.0880   0.01504   0.01056  -0.0199  0.4290  0.7659
   8.660   1.0859   0.01515   0.01065  -0.0194  0.4257  0.7660
   8.670   1.0892   0.01508   0.01059  -0.0198  0.4284  0.7660
   8.680   1.0901   0.01509   0.01060  -0.0198  0.4285  0.7661
   8.720   1.0926   0.01516   0.01067  -0.0197  0.4274  0.7663
   8.730   1.0930   0.01518   0.01069  -0.0196  0.4269  0.7664
   8.740   1.0938   0.01519   0.01071  -0.0196  0.4269  0.7665
   8.750   1.0945   0.01521   0.01072  -0.0195  0.4267  0.7666
   8.760   1.0946   0.01524   0.01075  -0.0194  0.4261  0.7666
   8.770   1.0962   0.01523   0.01074  -0.0195  0.4268  0.7667
   8.780   1.0969   0.01524   0.01076  -0.0195  0.4266  0.7668
   8.790   1.0966   0.01529   0.01080  -0.0193  0.4256  0.7669
   8.800   1.0974   0.01530   0.01082  -0.0193  0.4255  0.7669
   8.810   1.0980   0.01532   0.01083  -0.0193  0.4254  0.7670
   8.820   1.0986   0.01534   0.01085  -0.0192  0.4252  0.7671
   8.830   1.1000   0.01533   0.01085  -0.0193  0.4256  0.7671
   8.840   1.1003   0.01536   0.01087  -0.0192  0.4252  0.7672
   8.850   1.1008   0.01538   0.01090  -0.0191  0.4250  0.7673
   8.860   1.1011   0.01541   0.01092  -0.0190  0.4245  0.7673
   8.870   1.1022   0.01541   0.01093  -0.0191  0.4246  0.7674
   8.880   1.1023   0.01545   0.01096  -0.0189  0.4241  0.7674
   8.890   1.1032   0.01546   0.01097  -0.0189  0.4241  0.7675
   8.900   1.1032   0.01550   0.01101  -0.0188  0.4236  0.7676
   8.910   1.1037   0.01552   0.01103  -0.0187  0.4234  0.7677
   8.920   1.1048   0.01552   0.01103  -0.0188  0.4235  0.7677
   8.930   1.1056   0.01553   0.01105  -0.0188  0.4235  0.7678
   8.940   1.1054   0.01558   0.01109  -0.0186  0.4227  0.7678
   8.950   1.1060   0.01560   0.01110  -0.0186  0.4227  0.7679
   8.960   1.1069   0.01560   0.01112  -0.0186  0.4227  0.7680
   8.970   1.1080   0.01561   0.01112  -0.0186  0.4221  0.7680
   8.980   1.1087   0.01562   0.01114  -0.0186  0.4221  0.7681
   8.990   1.1096   0.01563   0.01115  -0.0186  0.4219  0.7681
   9.000   1.1103   0.01564   0.01116  -0.0185  0.4221  0.7682
   9.010   1.1112   0.01565   0.01117  -0.0185  0.4216  0.7683
   9.020   1.1120   0.01567   0.01119  -0.0185  0.4212  0.7683
   9.030   1.1130   0.01567   0.01119  -0.0185  0.4214  0.7684
   9.040   1.1135   0.01569   0.01121  -0.0185  0.4205  0.7684
   9.050   1.1145   0.01570   0.01122  -0.0185  0.4213  0.7685
   9.060   1.1153   0.01571   0.01124  -0.0185  0.4206  0.7685
   9.070   1.1161   0.01572   0.01125  -0.0185  0.4207  0.7686
   9.080   1.1168   0.01574   0.01127  -0.0184  0.4200  0.7687
   9.090   1.1176   0.01575   0.01128  -0.0184  0.4204  0.7687
   9.100   1.1182   0.01577   0.01130  -0.0184  0.4194  0.7688
   9.110   1.1192   0.01578   0.01130  -0.0184  0.4198  0.7688
   9.120   1.1200   0.01579   0.01132  -0.0184  0.4196  0.7689
   9.130   1.1204   0.01581   0.01134  -0.0183  0.4188  0.7689
   9.140   1.1214   0.01582   0.01135  -0.0183  0.4191  0.7690
   9.150   1.1222   0.01583   0.01136  -0.0183  0.4189  0.7691
   9.160   1.1226   0.01586   0.01139  -0.0182  0.4181  0.7691
   9.170   1.1233   0.01587   0.01140  -0.0182  0.4179  0.7692
   9.180   1.1240   0.01589   0.01142  -0.0182  0.4177  0.7692
   9.190   1.1245   0.01591   0.01144  -0.0181  0.4173  0.7693
   9.200   1.1252   0.01593   0.01146  -0.0181  0.4171  0.7694
   9.210   1.1260   0.01594   0.01147  -0.0181  0.4170  0.7694
   9.220   1.1270   0.01595   0.01148  -0.0181  0.4173  0.7695
   9.230   1.1274   0.01597   0.01150  -0.0180  0.4168  0.7695
   9.240   1.1274   0.01602   0.01154  -0.0179  0.4159  0.7696
   9.250   1.1284   0.01602   0.01155  -0.0179  0.4161  0.7696
   9.260   1.1290   0.01604   0.01157  -0.0179  0.4159  0.7697
   9.270   1.1300   0.01605   0.01158  -0.0179  0.4161  0.7698
   9.280   1.1293   0.01611   0.01163  -0.0177  0.4148  0.7698
   9.290   1.1295   0.01615   0.01167  -0.0175  0.4143  0.7699
   9.300   1.1307   0.01615   0.01167  -0.0176  0.4146  0.7699
   9.310   1.1322   0.01613   0.01166  -0.0177  0.4151  0.7700
   9.320   1.1320   0.01618   0.01171  -0.0175  0.4143  0.7701
   9.330   1.1330   0.01619   0.01172  -0.0176  0.4144  0.7701
   9.340   1.1334   0.01621   0.01174  -0.0175  0.4142  0.7701
   9.350   1.1328   0.01628   0.01180  -0.0173  0.4133  0.7702
   9.360   1.1343   0.01627   0.01179  -0.0174  0.4137  0.7703
   9.370   1.1338   0.01633   0.01184  -0.0171  0.4128  0.7703
   9.380   1.1345   0.01635   0.01186  -0.0171  0.4126  0.7704
   9.390   1.1347   0.01638   0.01189  -0.0170  0.4124  0.7705
   9.400   1.1356   0.01639   0.01191  -0.0170  0.4124  0.7705
   9.410   1.1361   0.01641   0.01193  -0.0170  0.4123  0.7706
   9.420   1.1368   0.01643   0.01194  -0.0169  0.4117  0.7707
   9.430   1.1377   0.01644   0.01196  -0.0169  0.4119  0.7707
   9.440   1.1384   0.01645   0.01197  -0.0169  0.4115  0.7708
   9.450   1.1393   0.01646   0.01198  -0.0169  0.4112  0.7708
   9.460   1.1400   0.01648   0.01200  -0.0169  0.4112  0.7709
   9.470   1.1409   0.01649   0.01201  -0.0169  0.4109  0.7709
   9.480   1.1416   0.01651   0.01203  -0.0168  0.4107  0.7710
   9.490   1.1422   0.01653   0.01205  -0.0168  0.4103  0.7710
   9.500   1.1429   0.01654   0.01206  -0.0168  0.4099  0.7711
   9.510   1.1438   0.01655   0.01208  -0.0168  0.4098  0.7712
   9.520   1.1445   0.01657   0.01209  -0.0168  0.4096  0.7712
   9.530   1.1452   0.01659   0.01211  -0.0167  0.4094  0.7713
   9.540   1.1461   0.01660   0.01212  -0.0167  0.4095  0.7713
   9.550   1.1467   0.01662   0.01214  -0.0167  0.4090  0.7714
   9.560   1.1471   0.01664   0.01217  -0.0166  0.4083  0.7714
   9.570   1.1477   0.01666   0.01219  -0.0166  0.4080  0.7715
   9.580   1.1486   0.01667   0.01220  -0.0166  0.4081  0.7716
   9.590   1.1495   0.01668   0.01221  -0.0166  0.4081  0.7716
   9.600   1.1498   0.01671   0.01224  -0.0165  0.4074  0.7717
   9.610   1.1507   0.01673   0.01225  -0.0165  0.4073  0.7717
   9.620   1.1511   0.01675   0.01227  -0.0165  0.4068  0.7718
   9.630   1.1517   0.01677   0.01230  -0.0164  0.4064  0.7718
   9.640   1.1521   0.01680   0.01232  -0.0163  0.4060  0.7719
   9.650   1.1529   0.01681   0.01233  -0.0163  0.4061  0.7719
   9.660   1.1537   0.01683   0.01235  -0.0163  0.4060  0.7720
   9.670   1.1541   0.01685   0.01237  -0.0162  0.4055  0.7721
   9.680   1.1546   0.01688   0.01240  -0.0162  0.4051  0.7721
   9.690   1.1549   0.01691   0.01242  -0.0161  0.4047  0.7722
   9.700   1.1557   0.01692   0.01244  -0.0161  0.4046  0.7722
   9.710   1.1561   0.01695   0.01247  -0.0160  0.4042  0.7723
   9.720   1.1563   0.01698   0.01250  -0.0159  0.4038  0.7724
   9.730   1.1572   0.01700   0.01251  -0.0159  0.4037  0.7724
   9.740   1.1574   0.01703   0.01254  -0.0158  0.4032  0.7725
   9.750   1.1580   0.01705   0.01256  -0.0158  0.4030  0.7725
   9.760   1.1584   0.01708   0.01259  -0.0157  0.4027  0.7726
   9.770   1.1577   0.01715   0.01265  -0.0155  0.4014  0.7727
   9.780   1.1595   0.01713   0.01263  -0.0156  0.4023  0.7727
   9.790   1.1595   0.01717   0.01267  -0.0155  0.4018  0.7728
   9.800   1.1601   0.01719   0.01269  -0.0154  0.4017  0.7728
   9.810   1.1607   0.01721   0.01271  -0.0154  0.4015  0.7729
   9.820   1.1616   0.01722   0.01272  -0.0154  0.4012  0.7729
   9.830   1.1624   0.01724   0.01274  -0.0154  0.4010  0.7730
   9.840   1.1631   0.01726   0.01276  -0.0154  0.4005  0.7731
   9.850   1.1638   0.01727   0.01277  -0.0153  0.4004  0.7731
   9.860   1.1644   0.01729   0.01279  -0.0153  0.4000  0.7732
