  
       XFOIL         Version 6.94
  
 Calculated polar for: 1080                                            
  
 1 1 Reynolds number fixed          Mach number fixed         
  
 xtrf =   1.000 (top)        1.000 (bottom)  
 Mach =   0.000     Re =     2.000 e 6     Ncrit =   9.000
  
  alpha     CL        CD       CDp       CM    Top_Xtr Bot_Xtr
 ------- -------- --------- --------- -------- ------- -------
   6.000   1.6061   0.00779   0.00373  -0.2053  0.5900  0.6098
   6.010   1.6064   0.00778   0.00373  -0.2051  0.5876  0.6100
   6.020   1.6076   0.00779   0.00373  -0.2051  0.5886  0.6101
   6.030   1.6083   0.00779   0.00374  -0.2051  0.5871  0.6102
   6.040   1.6095   0.00779   0.00374  -0.2051  0.5879  0.6103
   6.050   1.6103   0.00779   0.00374  -0.2051  0.5872  0.6105
   6.060   1.6109   0.00780   0.00375  -0.2050  0.5863  0.6107
   6.070   1.6125   0.00780   0.00376  -0.2051  0.5878  0.6108
   6.080   1.6127   0.00780   0.00376  -0.2050  0.5860  0.6109
   6.090   1.6086   0.00786   0.00378  -0.2039  0.5816  0.6109
   6.100   1.6156   0.00781   0.00377  -0.2052  0.5885  0.6112
   6.110   1.6167   0.00782   0.00377  -0.2052  0.5886  0.6113
   6.120   1.6177   0.00782   0.00378  -0.2052  0.5886  0.6115
   6.130   1.6173   0.00782   0.00378  -0.2049  0.5854  0.6116
   6.140   1.6145   0.00786   0.00380  -0.2041  0.5821  0.6116
   6.150   1.6122   0.00791   0.00382  -0.2034  0.5803  0.6117
   6.160   1.6191   0.00784   0.00380  -0.2046  0.5840  0.6120
   6.170   1.6189   0.00786   0.00381  -0.2044  0.5830  0.6121
   6.180   1.6163   0.00790   0.00383  -0.2036  0.5809  0.6122
   6.190   1.6159   0.00792   0.00385  -0.2033  0.5787  0.6123
   6.200   1.6172   0.00793   0.00385  -0.2034  0.5803  0.6125
   6.210   1.6212   0.00789   0.00383  -0.2040  0.5819  0.6127
   6.220   1.6214   0.00790   0.00384  -0.2039  0.5815  0.6128
   6.230   1.6200   0.00794   0.00386  -0.2033  0.5787  0.6129
   6.240   1.6210   0.00794   0.00387  -0.2034  0.5788  0.6130
   6.250   1.6217   0.00795   0.00387  -0.2033  0.5781  0.6132
   6.260   1.6203   0.00798   0.00390  -0.2028  0.5748  0.6133
   6.270   1.6236   0.00795   0.00388  -0.2033  0.5780  0.6134
   6.280   1.6252   0.00795   0.00389  -0.2034  0.5798  0.6136
   6.290   1.6214   0.00802   0.00393  -0.2024  0.5732  0.6136
   6.300   1.6258   0.00797   0.00390  -0.2031  0.5766  0.6139
   6.310   1.6239   0.00802   0.00393  -0.2025  0.5736  0.6139
   6.320   1.6257   0.00801   0.00393  -0.2027  0.5742  0.6141
   6.330   1.6280   0.00799   0.00393  -0.2030  0.5755  0.6142
   6.340   1.6256   0.00805   0.00396  -0.2023  0.5727  0.6143
   6.350   1.6284   0.00802   0.00395  -0.2026  0.5740  0.6145
   6.360   1.6261   0.00808   0.00398  -0.2020  0.5718  0.6146
