  
       XFOIL         Version 6.94
  
 Calculated polar for: 1080                                            
  
 1 1 Reynolds number fixed          Mach number fixed         
  
 xtrf =   1.000 (top)        1.000 (bottom)  
 Mach =   0.000     Re =     2.000 e 6     Ncrit =   9.000
  
  alpha     CL        CD       CDp       CM    Top_Xtr Bot_Xtr
 ------- -------- --------- --------- -------- ------- -------
   6.000   1.1011   0.00727   0.00370  -0.1039  0.6044  0.8309
   6.010   1.0991   0.00732   0.00374  -0.1033  0.6019  0.8310
   6.020   1.1070   0.00722   0.00367  -0.1047  0.6082  0.8309
   6.030   1.1154   0.00713   0.00361  -0.1062  0.6152  0.8308
   6.050   1.1086   0.00725   0.00369  -0.1044  0.6072  0.8310
   6.060   1.1165   0.00716   0.00363  -0.1058  0.6140  0.8309
   6.070   1.0958   0.00748   0.00386  -0.1015  0.5941  0.8312
   6.080   1.0973   0.00747   0.00386  -0.1016  0.5945  0.8312
   6.090   1.0990   0.00746   0.00386  -0.1017  0.5952  0.8312
   6.100   1.1173   0.00721   0.00368  -0.1052  0.6102  0.8310
   6.110   1.1010   0.00747   0.00387  -0.1017  0.5952  0.8312
   6.120   1.1049   0.00743   0.00383  -0.1023  0.5974  0.8312
   6.130   1.1181   0.00725   0.00371  -0.1048  0.6084  0.8310
   6.140   1.1189   0.00726   0.00372  -0.1047  0.6083  0.8310
   6.150   1.0982   0.00759   0.00397  -0.1004  0.5897  0.8314
   6.160   1.0911   0.00773   0.00409  -0.0988  0.5836  0.8315
   6.170   1.0857   0.00785   0.00419  -0.0975  0.5790  0.8316
   6.180   1.0547   0.00854   0.00477  -0.0915  0.5585  0.8320
   6.190   1.0912   0.00780   0.00414  -0.0982  0.5817  0.8316
   6.200   1.0915   0.00781   0.00415  -0.0981  0.5812  0.8316
   6.210   1.0538   0.00864   0.00487  -0.0907  0.5565  0.8321
   6.220   1.0841   0.00800   0.00431  -0.0963  0.5749  0.8317
   6.230   1.0939   0.00783   0.00418  -0.0980  0.5809  0.8316
   6.240   1.0877   0.00797   0.00430  -0.0966  0.5760  0.8317
   6.250   1.0914   0.00792   0.00426  -0.0971  0.5777  0.8317
   6.260   1.1225   0.00740   0.00384  -0.1030  0.6012  0.8313
   6.270   1.0473   0.00897   0.00517  -0.0885  0.5499  0.8323
   6.280   1.0776   0.00828   0.00457  -0.0939  0.5670  0.8319
   6.290   1.0786   0.00828   0.00457  -0.0939  0.5670  0.8319
   6.300   1.1286   0.00738   0.00384  -0.1035  0.6028  0.8313
   6.310   1.0849   0.00819   0.00450  -0.0947  0.5699  0.8319
   6.320   1.0635   0.00871   0.00495  -0.0905  0.5564  0.8322
   6.330   1.0543   0.00897   0.00519  -0.0887  0.5507  0.8323
   6.340   1.0591   0.00887   0.00510  -0.0894  0.5529  0.8323
   6.350   1.0681   0.00868   0.00493  -0.0909  0.5575  0.8322
   6.360   1.0761   0.00852   0.00479  -0.0922  0.5616  0.8321
   6.370   1.0164   0.01016   0.00628  -0.0812  0.5287  0.8328
   6.380   1.0554   0.00908   0.00530  -0.0880  0.5490  0.8324
   6.390   1.0781   0.00855   0.00483  -0.0920  0.5612  0.8321
   6.400   1.0775   0.00859   0.00486  -0.0917  0.5604  0.8322
   6.410   1.0205   0.01018   0.00631  -0.0813  0.5291  0.8329
   6.420   1.0452   0.00949   0.00567  -0.0854  0.5416  0.8326
   6.430   1.0543   0.00927   0.00547  -0.0869  0.5459  0.8325
   6.440   1.0399   0.00970   0.00587  -0.0842  0.5378  0.8327
   6.450   1.0498   0.00945   0.00565  -0.0857  0.5427  0.8326
   6.460   1.0420   0.00971   0.00588  -0.0842  0.5379  0.8327
   6.470   1.0391   0.00983   0.00599  -0.0835  0.5359  0.8328
   6.480   1.0089   0.01080   0.00690  -0.0781  0.5200  0.8331
   6.490   1.0106   0.01079   0.00689  -0.0782  0.5204  0.8331
   6.500   1.0639   0.00923   0.00545  -0.0874  0.5478  0.8325
   6.510   1.0553   0.00949   0.00569  -0.0857  0.5427  0.8327
   6.520   1.0228   0.01050   0.00663  -0.0798  0.5253  0.8331
   6.530   0.9925   0.01156   0.00762  -0.0746  0.5092  0.8334
   6.540   1.0343   0.01021   0.00637  -0.0815  0.5303  0.8330
   6.550   1.0467   0.00987   0.00605  -0.0835  0.5364  0.8328
   6.560   1.0261   0.01054   0.00667  -0.0797  0.5253  0.8331
   6.570   1.0457   0.00997   0.00614  -0.0830  0.5351  0.8329
   6.580   1.0233   0.01071   0.00683  -0.0789  0.5230  0.8332
   6.590   1.0270   0.01062   0.00676  -0.0794  0.5245  0.8331
   6.610   1.0178   0.01100   0.00711  -0.0775  0.5188  0.8333
   6.620   1.0381   0.01038   0.00653  -0.0808  0.5288  0.8331
   6.630   0.9821   0.01235   0.00838  -0.0713  0.4998  0.8337
   6.640   1.0312   0.01067   0.00682  -0.0793  0.5245  0.8332
   6.650   0.9906   0.01212   0.00817  -0.0723  0.5035  0.8337
   6.660   1.0154   0.01128   0.00739  -0.0763  0.5157  0.8334
   6.670   0.9791   0.01263   0.00866  -0.0702  0.4966  0.8338
   6.680   1.0147   0.01138   0.00749  -0.0759  0.5145  0.8335
   6.690   1.0592   0.00998   0.00618  -0.0833  0.5367  0.8330
   6.700   0.9787   0.01278   0.00880  -0.0696  0.4954  0.8339
   6.710   1.0089   0.01171   0.00779  -0.0744  0.5102  0.8336
   6.720   0.9652   0.01338   0.00937  -0.0672  0.4874  0.8341
   6.730   1.0186   0.01145   0.00756  -0.0757  0.5145  0.8335
   6.740   1.0434   0.01065   0.00681  -0.0797  0.5266  0.8332
   6.750   0.9994   0.01222   0.00828  -0.0722  0.5039  0.8337
   6.760   1.0133   0.01175   0.00785  -0.0744  0.5104  0.8336
   6.770   0.9938   0.01251   0.00856  -0.0710  0.5000  0.8339
   6.780   0.9409   0.01463   0.01056  -0.0625  0.4723  0.8344
   6.790   0.9827   0.01302   0.00905  -0.0689  0.4938  0.8340
   6.800   0.9803   0.01316   0.00918  -0.0684  0.4921  0.8341
   6.810   1.0093   0.01211   0.00820  -0.0729  0.5065  0.8338
   6.820   1.0029   0.01239   0.00846  -0.0717  0.5028  0.8338
   6.830   0.9836   0.01316   0.00919  -0.0685  0.4926  0.8341
   6.840   0.9303   0.01535   0.01125  -0.0600  0.4639  0.8347
   6.850   1.0078   0.01233   0.00841  -0.0720  0.5041  0.8338
   6.860   0.9756   0.01361   0.00962  -0.0667  0.4873  0.8342
   6.870   1.0186   0.01202   0.00812  -0.0735  0.5088  0.8338
   6.880   0.9905   0.01312   0.00916  -0.0688  0.4942  0.8341
