  
       XFOIL         Version 6.94
  
 Calculated polar for: 1080                                            
  
 1 1 Reynolds number fixed          Mach number fixed         
  
 xtrf =   1.000 (top)        1.000 (bottom)  
 Mach =   0.000     Re =     2.000 e 6     Ncrit =   9.000
  
  alpha     CL        CD       CDp       CM    Top_Xtr Bot_Xtr
 ------- -------- --------- --------- -------- ------- -------
   6.000   1.1744   0.00720   0.00321  -0.0964  0.5346  0.7801
   6.010   1.1755   0.00720   0.00321  -0.0964  0.5345  0.7801
   6.020   1.1766   0.00720   0.00321  -0.0965  0.5345  0.7801
   6.030   1.1776   0.00720   0.00321  -0.0965  0.5344  0.7802
   6.040   1.1787   0.00720   0.00321  -0.0965  0.5343  0.7802
   6.050   1.1797   0.00720   0.00321  -0.0965  0.5342  0.7802
   6.060   1.1808   0.00720   0.00322  -0.0965  0.5341  0.7803
   6.070   1.1818   0.00720   0.00322  -0.0965  0.5340  0.7803
   6.080   1.1829   0.00720   0.00322  -0.0965  0.5340  0.7803
   6.090   1.1838   0.00720   0.00322  -0.0965  0.5337  0.7804
   6.100   1.1850   0.00720   0.00322  -0.0965  0.5338  0.7804
   6.110   1.1860   0.00720   0.00322  -0.0965  0.5337  0.7804
   6.120   1.1871   0.00720   0.00323  -0.0965  0.5336  0.7805
   6.130   1.1881   0.00720   0.00323  -0.0965  0.5335  0.7805
   6.140   1.1891   0.00720   0.00323  -0.0965  0.5334  0.7805
   6.150   1.1902   0.00720   0.00323  -0.0965  0.5333  0.7806
   6.160   1.1912   0.00721   0.00323  -0.0965  0.5332  0.7806
   6.170   1.1923   0.00721   0.00324  -0.0965  0.5332  0.7806
   6.180   1.1933   0.00721   0.00324  -0.0965  0.5331  0.7806
   6.190   1.1944   0.00721   0.00324  -0.0965  0.5330  0.7807
   6.200   1.1955   0.00721   0.00324  -0.0965  0.5329  0.7807
   6.210   1.1965   0.00721   0.00324  -0.0965  0.5328  0.7807
   6.220   1.1975   0.00721   0.00324  -0.0965  0.5327  0.7808
   6.230   1.1986   0.00721   0.00325  -0.0965  0.5326  0.7808
   6.240   1.1996   0.00721   0.00325  -0.0965  0.5325  0.7808
   6.250   1.2006   0.00721   0.00325  -0.0965  0.5324  0.7809
   6.260   1.2017   0.00721   0.00325  -0.0965  0.5324  0.7809
   6.270   1.2028   0.00722   0.00325  -0.0965  0.5323  0.7809
   6.280   1.2038   0.00722   0.00326  -0.0965  0.5322  0.7810
   6.290   1.2048   0.00721   0.00326  -0.0965  0.5321  0.7810
   6.300   1.2059   0.00722   0.00326  -0.0965  0.5321  0.7810
   6.310   1.2069   0.00722   0.00326  -0.0965  0.5319  0.7811
   6.320   1.2079   0.00722   0.00326  -0.0965  0.5318  0.7811
   6.330   1.2090   0.00722   0.00326  -0.0965  0.5318  0.7811
   6.340   1.2100   0.00722   0.00326  -0.0965  0.5316  0.7811
   6.350   1.2110   0.00722   0.00327  -0.0965  0.5316  0.7812
   6.360   1.2121   0.00722   0.00327  -0.0965  0.5315  0.7812
   6.370   1.2130   0.00722   0.00327  -0.0965  0.5314  0.7812
   6.380   1.2141   0.00722   0.00327  -0.0965  0.5313  0.7813
   6.390   1.2150   0.00722   0.00327  -0.0965  0.5311  0.7813
   6.400   1.2162   0.00723   0.00328  -0.0965  0.5312  0.7813
   6.410   1.2171   0.00723   0.00328  -0.0965  0.5310  0.7814
   6.420   1.2181   0.00723   0.00328  -0.0965  0.5309  0.7814
   6.430   1.2191   0.00723   0.00328  -0.0964  0.5308  0.7814
   6.440   1.2200   0.00723   0.00328  -0.0964  0.5307  0.7815
   6.450   1.2210   0.00723   0.00328  -0.0964  0.5306  0.7815
   6.460   1.2221   0.00723   0.00328  -0.0964  0.5306  0.7815
   6.470   1.2230   0.00723   0.00328  -0.0964  0.5304  0.7816
   6.480   1.2239   0.00724   0.00329  -0.0964  0.5303  0.7816
   6.490   1.2249   0.00724   0.00329  -0.0964  0.5303  0.7816
   6.500   1.2258   0.00724   0.00329  -0.0963  0.5301  0.7816
   6.510   1.2268   0.00724   0.00329  -0.0963  0.5301  0.7817
   6.520   1.2277   0.00724   0.00329  -0.0963  0.5299  0.7817
   6.530   1.2287   0.00724   0.00329  -0.0963  0.5299  0.7817
   6.540   1.2297   0.00725   0.00330  -0.0963  0.5298  0.7818
   6.550   1.2306   0.00725   0.00330  -0.0962  0.5297  0.7818
   6.560   1.2315   0.00725   0.00330  -0.0962  0.5296  0.7818
   6.570   1.2324   0.00725   0.00330  -0.0962  0.5295  0.7819
   6.580   1.2333   0.00725   0.00330  -0.0962  0.5294  0.7819
   6.590   1.2342   0.00725   0.00330  -0.0961  0.5293  0.7819
   6.600   1.2353   0.00725   0.00331  -0.0961  0.5293  0.7820
   6.610   1.2360   0.00726   0.00331  -0.0961  0.5290  0.7820
   6.620   1.2369   0.00726   0.00331  -0.0961  0.5290  0.7820
   6.630   1.2380   0.00726   0.00331  -0.0961  0.5290  0.7821
   6.640   1.2388   0.00726   0.00331  -0.0960  0.5288  0.7821
   6.650   1.2396   0.00726   0.00331  -0.0960  0.5287  0.7821
   6.660   1.2404   0.00727   0.00331  -0.0959  0.5285  0.7822
   6.670   1.2415   0.00727   0.00332  -0.0959  0.5285  0.7822
   6.680   1.2422   0.00727   0.00332  -0.0959  0.5283  0.7822
   6.690   1.2430   0.00727   0.00332  -0.0958  0.5282  0.7823
   6.700   1.2439   0.00728   0.00332  -0.0958  0.5281  0.7823
   6.710   1.2448   0.00728   0.00333  -0.0958  0.5280  0.7823
   6.720   1.2457   0.00728   0.00333  -0.0957  0.5279  0.7824
   6.730   1.2465   0.00728   0.00333  -0.0957  0.5278  0.7824
   6.740   1.2474   0.00729   0.00333  -0.0956  0.5277  0.7824
   6.750   1.2483   0.00729   0.00334  -0.0956  0.5276  0.7825
   6.760   1.2491   0.00729   0.00334  -0.0956  0.5275  0.7825
   6.770   1.2500   0.00730   0.00334  -0.0955  0.5274  0.7825
   6.780   1.2510   0.00730   0.00334  -0.0955  0.5273  0.7826
   6.790   1.2517   0.00730   0.00335  -0.0955  0.5272  0.7826
   6.800   1.2526   0.00731   0.00335  -0.0955  0.5271  0.7826
   6.810   1.2536   0.00731   0.00335  -0.0954  0.5270  0.7827
   6.820   1.2545   0.00732   0.00336  -0.0954  0.5269  0.7827
   6.830   1.2554   0.00731   0.00336  -0.0954  0.5268  0.7827
   6.840   1.2564   0.00731   0.00336  -0.0954  0.5267  0.7828
   6.850   1.2574   0.00731   0.00336  -0.0954  0.5266  0.7828
   6.860   1.2584   0.00731   0.00336  -0.0954  0.5265  0.7828
   6.870   1.2594   0.00731   0.00337  -0.0953  0.5264  0.7829
   6.880   1.2603   0.00731   0.00337  -0.0953  0.5263  0.7829
   6.890   1.2614   0.00732   0.00337  -0.0953  0.5263  0.7829
   6.900   1.2623   0.00731   0.00337  -0.0953  0.5262  0.7829
   6.910   1.2633   0.00732   0.00337  -0.0953  0.5261  0.7830
   6.920   1.2643   0.00732   0.00338  -0.0953  0.5261  0.7830
   6.930   1.2653   0.00732   0.00338  -0.0953  0.5260  0.7830
   6.940   1.2663   0.00732   0.00338  -0.0953  0.5259  0.7831
   6.950   1.2673   0.00732   0.00338  -0.0953  0.5257  0.7831
   6.960   1.2683   0.00732   0.00338  -0.0953  0.5256  0.7831
   6.970   1.2693   0.00732   0.00339  -0.0952  0.5255  0.7832
   6.980   1.2703   0.00732   0.00339  -0.0952  0.5255  0.7832
   6.990   1.2712   0.00732   0.00339  -0.0952  0.5254  0.7832
   7.000   1.2722   0.00732   0.00339  -0.0952  0.5253  0.7833
   7.010   1.2733   0.00732   0.00340  -0.0952  0.5252  0.7833
   7.020   1.2742   0.00732   0.00340  -0.0952  0.5251  0.7833
   7.030   1.2752   0.00732   0.00340  -0.0952  0.5250  0.7833
   7.040   1.2762   0.00732   0.00340  -0.0952  0.5249  0.7834
   7.050   1.2772   0.00732   0.00340  -0.0952  0.5247  0.7834
   7.060   1.2782   0.00733   0.00341  -0.0952  0.5246  0.7834
   7.070   1.2792   0.00733   0.00341  -0.0952  0.5245  0.7835
   7.080   1.2801   0.00733   0.00341  -0.0951  0.5244  0.7835
   7.090   1.2811   0.00733   0.00341  -0.0951  0.5243  0.7835
   7.100   1.2821   0.00733   0.00342  -0.0951  0.5242  0.7836
   7.110   1.2831   0.00733   0.00342  -0.0951  0.5240  0.7836
   7.120   1.2840   0.00733   0.00342  -0.0951  0.5239  0.7836
   7.130   1.2851   0.00733   0.00342  -0.0951  0.5239  0.7837
   7.140   1.2860   0.00733   0.00343  -0.0951  0.5237  0.7837
   7.150   1.2870   0.00733   0.00343  -0.0951  0.5235  0.7837
   7.160   1.2880   0.00734   0.00343  -0.0951  0.5235  0.7837
   7.170   1.2889   0.00733   0.00343  -0.0950  0.5232  0.7838
   7.180   1.2900   0.00734   0.00344  -0.0950  0.5233  0.7838
   7.190   1.2909   0.00734   0.00344  -0.0950  0.5231  0.7838
   7.200   1.2919   0.00734   0.00344  -0.0950  0.5230  0.7839
   7.210   1.2928   0.00734   0.00344  -0.0950  0.5228  0.7839
   7.220   1.2938   0.00734   0.00344  -0.0950  0.5227  0.7839
   7.230   1.2948   0.00734   0.00345  -0.0950  0.5226  0.7839
   7.240   1.2957   0.00734   0.00345  -0.0950  0.5224  0.7840
   7.250   1.2967   0.00735   0.00345  -0.0949  0.5223  0.7840
   7.260   1.2977   0.00735   0.00345  -0.0949  0.5222  0.7840
   7.270   1.2987   0.00735   0.00346  -0.0949  0.5222  0.7841
   7.280   1.2996   0.00735   0.00346  -0.0949  0.5220  0.7841
   7.290   1.3005   0.00735   0.00346  -0.0949  0.5219  0.7841
   7.300   1.3015   0.00736   0.00346  -0.0949  0.5218  0.7842
   7.310   1.3025   0.00736   0.00347  -0.0949  0.5217  0.7842
   7.320   1.3034   0.00736   0.00347  -0.0948  0.5216  0.7842
   7.330   1.3043   0.00736   0.00347  -0.0948  0.5214  0.7842
   7.340   1.3052   0.00736   0.00347  -0.0948  0.5212  0.7843
   7.350   1.3061   0.00737   0.00348  -0.0947  0.5210  0.7843
   7.360   1.3071   0.00737   0.00348  -0.0948  0.5211  0.7843
   7.370   1.3079   0.00737   0.00348  -0.0947  0.5208  0.7844
   7.380   1.3089   0.00737   0.00348  -0.0947  0.5208  0.7844
   7.390   1.3098   0.00738   0.00349  -0.0947  0.5206  0.7844
   7.400   1.3106   0.00738   0.00349  -0.0946  0.5204  0.7845
   7.410   1.3116   0.00738   0.00349  -0.0946  0.5203  0.7845
   7.420   1.3124   0.00739   0.00350  -0.0946  0.5201  0.7845
   7.430   1.3134   0.00739   0.00350  -0.0946  0.5201  0.7845
   7.440   1.3142   0.00739   0.00350  -0.0945  0.5198  0.7846
   7.450   1.3150   0.00740   0.00350  -0.0945  0.5197  0.7846
   7.460   1.3160   0.00740   0.00351  -0.0945  0.5196  0.7846
   7.470   1.3168   0.00740   0.00351  -0.0944  0.5195  0.7847
   7.480   1.3176   0.00741   0.00351  -0.0944  0.5193  0.7847
   7.490   1.3185   0.00741   0.00352  -0.0943  0.5192  0.7847
   7.500   1.3194   0.00741   0.00352  -0.0943  0.5191  0.7847
   7.510   1.3202   0.00742   0.00352  -0.0943  0.5189  0.7848
   7.520   1.3211   0.00742   0.00353  -0.0942  0.5188  0.7848
   7.530   1.3217   0.00742   0.00353  -0.0942  0.5186  0.7848
   7.540   1.3226   0.00743   0.00353  -0.0941  0.5185  0.7849
   7.550   1.3234   0.00743   0.00354  -0.0941  0.5184  0.7849
   7.560   1.3243   0.00744   0.00354  -0.0941  0.5183  0.7849
   7.570   1.3250   0.00744   0.00355  -0.0940  0.5181  0.7849
   7.580   1.3258   0.00745   0.00355  -0.0939  0.5179  0.7850
   7.590   1.3265   0.00745   0.00355  -0.0939  0.5178  0.7850
   7.600   1.3272   0.00746   0.00356  -0.0938  0.5176  0.7850
   7.610   1.3282   0.00746   0.00356  -0.0938  0.5176  0.7851
   7.620   1.3289   0.00747   0.00357  -0.0937  0.5174  0.7851
   7.630   1.3296   0.00747   0.00357  -0.0937  0.5172  0.7851
   7.640   1.3303   0.00748   0.00358  -0.0936  0.5171  0.7851
   7.650   1.3313   0.00748   0.00358  -0.0936  0.5171  0.7852
   7.660   1.3321   0.00748   0.00358  -0.0935  0.5167  0.7852
   7.670   1.3331   0.00749   0.00359  -0.0935  0.5166  0.7852
   7.680   1.3341   0.00749   0.00359  -0.0935  0.5166  0.7852
   7.690   1.3352   0.00749   0.00359  -0.0936  0.5163  0.7853
   7.700   1.3362   0.00749   0.00360  -0.0935  0.5163  0.7853
   7.710   1.3372   0.00749   0.00360  -0.0935  0.5161  0.7853
   7.720   1.3382   0.00750   0.00361  -0.0935  0.5161  0.7853
   7.730   1.3392   0.00750   0.00361  -0.0935  0.5160  0.7854
