  
       XFOIL         Version 6.94
  
 Calculated polar for: 1080                                            
  
 1 1 Reynolds number fixed          Mach number fixed         
  
 xtrf =   1.000 (top)        1.000 (bottom)  
 Mach =   0.000     Re =     2.000 e 6     Ncrit =   9.000
  
  alpha     CL        CD       CDp       CM    Top_Xtr Bot_Xtr
 ------- -------- --------- --------- -------- ------- -------
   6.000   0.8632   0.00942   0.00502  -0.0265  0.4722  0.7591
   6.010   0.8641   0.00942   0.00503  -0.0265  0.4721  0.7591
   6.020   0.8648   0.00944   0.00504  -0.0265  0.4717  0.7592
   6.030   0.8656   0.00945   0.00505  -0.0264  0.4715  0.7592
   6.040   0.8666   0.00945   0.00506  -0.0264  0.4716  0.7593
   6.050   0.8675   0.00946   0.00506  -0.0264  0.4715  0.7593
   6.060   0.8681   0.00947   0.00508  -0.0264  0.4712  0.7594
   6.070   0.8687   0.00948   0.00509  -0.0263  0.4708  0.7594
   6.080   0.8691   0.00950   0.00510  -0.0262  0.4701  0.7595
   6.090   0.8704   0.00950   0.00510  -0.0263  0.4707  0.7595
   6.100   0.8707   0.00952   0.00512  -0.0261  0.4698  0.7596
   6.110   0.8720   0.00952   0.00512  -0.0262  0.4703  0.7597
   6.120   0.8729   0.00953   0.00513  -0.0262  0.4703  0.7597
   6.130   0.8733   0.00955   0.00515  -0.0261  0.4698  0.7598
   6.140   0.8742   0.00955   0.00515  -0.0261  0.4697  0.7598
   6.150   0.8745   0.00958   0.00517  -0.0259  0.4692  0.7599
   6.160   0.8753   0.00958   0.00518  -0.0259  0.4691  0.7600
   6.170   0.8763   0.00959   0.00519  -0.0259  0.4692  0.7600
   6.180   0.8769   0.00960   0.00520  -0.0258  0.4689  0.7601
   6.190   0.8780   0.00960   0.00520  -0.0259  0.4691  0.7601
   6.200   0.8788   0.00961   0.00521  -0.0258  0.4689  0.7602
   6.210   0.8791   0.00963   0.00523  -0.0257  0.4685  0.7603
   6.220   0.8799   0.00965   0.00524  -0.0257  0.4684  0.7603
   6.230   0.8806   0.00966   0.00525  -0.0256  0.4683  0.7604
   6.240   0.8813   0.00967   0.00526  -0.0256  0.4681  0.7604
   6.250   0.8786   0.00977   0.00533  -0.0249  0.4604  0.7606
   6.260   0.8822   0.00971   0.00530  -0.0254  0.4673  0.7606
   6.270   0.8833   0.00971   0.00530  -0.0254  0.4675  0.7606
   6.280   0.8841   0.00972   0.00531  -0.0254  0.4674  0.7607
   6.310   0.8858   0.00976   0.00535  -0.0252  0.4667  0.7608
   6.330   0.8877   0.00978   0.00536  -0.0252  0.4646  0.7610
   6.340   0.8887   0.00978   0.00537  -0.0252  0.4664  0.7610
   6.350   0.8895   0.00979   0.00538  -0.0252  0.4661  0.7611
   6.360   0.8905   0.00979   0.00538  -0.0252  0.4656  0.7611
   6.370   0.8913   0.00980   0.00539  -0.0251  0.4655  0.7612
   6.380   0.8923   0.00981   0.00540  -0.0251  0.4658  0.7612
   6.390   0.8932   0.00981   0.00541  -0.0251  0.4656  0.7613
   6.400   0.8942   0.00982   0.00541  -0.0251  0.4651  0.7614
   6.410   0.8951   0.00983   0.00542  -0.0251  0.4652  0.7614
   6.420   0.8957   0.00984   0.00543  -0.0250  0.4639  0.7615
   6.430   0.8966   0.00985   0.00544  -0.0250  0.4637  0.7615
   6.440   0.8936   0.00996   0.00552  -0.0243  0.4578  0.7617
   6.450   0.8986   0.00986   0.00545  -0.0250  0.4644  0.7616
   6.460   0.8994   0.00986   0.00546  -0.0250  0.4644  0.7617
   6.470   0.9002   0.00987   0.00547  -0.0250  0.4636  0.7618
   6.480   0.9003   0.00990   0.00549  -0.0248  0.4616  0.7618
   6.490   0.9020   0.00989   0.00548  -0.0249  0.4632  0.7619
   6.500   0.9030   0.00989   0.00549  -0.0250  0.4637  0.7619
   6.510   0.9039   0.00990   0.00550  -0.0250  0.4638  0.7620
   6.520   0.8980   0.01009   0.00563  -0.0237  0.4517  0.7622
   6.530   0.9053   0.00992   0.00552  -0.0249  0.4626  0.7621
   6.540   0.9054   0.00995   0.00554  -0.0247  0.4610  0.7621
   6.550   0.9066   0.00995   0.00554  -0.0248  0.4615  0.7622
   6.560   0.9056   0.01001   0.00559  -0.0244  0.4589  0.7623
   6.570   0.9087   0.00996   0.00555  -0.0248  0.4620  0.7623
   6.580   0.9045   0.01011   0.00565  -0.0239  0.4544  0.7625
   6.590   0.9105   0.00997   0.00557  -0.0248  0.4619  0.7624
   6.600   0.9112   0.00998   0.00558  -0.0247  0.4614  0.7625
   6.610   0.9120   0.01000   0.00559  -0.0247  0.4611  0.7626
   6.620   0.9130   0.01000   0.00560  -0.0247  0.4613  0.7626
   6.630   0.9120   0.01006   0.00564  -0.0243  0.4590  0.7627
   6.640   0.9120   0.01009   0.00567  -0.0242  0.4581  0.7628
   6.650   0.9109   0.01015   0.00571  -0.0238  0.4552  0.7628
   6.660   0.9159   0.01005   0.00564  -0.0245  0.4603  0.7628
   6.670   0.9127   0.01017   0.00572  -0.0238  0.4560  0.7629
   6.680   0.9161   0.01010   0.00569  -0.0242  0.4585  0.7630
   6.690   0.9183   0.01008   0.00567  -0.0244  0.4598  0.7630
   6.700   0.9188   0.01009   0.00568  -0.0243  0.4595  0.7630
   6.710   0.9156   0.01021   0.00577  -0.0236  0.4528  0.7632
   6.720   0.9203   0.01012   0.00571  -0.0243  0.4591  0.7632
   6.730   0.9200   0.01016   0.00574  -0.0240  0.4581  0.7632
   6.740   0.9215   0.01015   0.00574  -0.0241  0.4585  0.7633
   6.760   0.9225   0.01018   0.00577  -0.0240  0.4578  0.7634
   6.770   0.9145   0.01045   0.00595  -0.0224  0.4422  0.7636
   6.780   0.9211   0.01029   0.00584  -0.0234  0.4511  0.7635
   6.790   0.9234   0.01026   0.00583  -0.0236  0.4560  0.7636
   6.800   0.9255   0.01023   0.00581  -0.0238  0.4573  0.7636
   6.810   0.9262   0.01024   0.00582  -0.0238  0.4573  0.7636
   6.820   0.9260   0.01028   0.00585  -0.0236  0.4544  0.7637
   6.830   0.9276   0.01027   0.00585  -0.0237  0.4570  0.7637
   6.840   0.9278   0.01029   0.00587  -0.0236  0.4548  0.7638
   6.850   0.9278   0.01033   0.00589  -0.0234  0.4521  0.7638
   6.860   0.9296   0.01031   0.00589  -0.0235  0.4563  0.7639
   6.870   0.9307   0.01031   0.00589  -0.0236  0.4555  0.7639
   6.880   0.9222   0.01059   0.00608  -0.0219  0.4388  0.7641
   6.890   0.9324   0.01033   0.00591  -0.0235  0.4553  0.7640
   6.900   0.9317   0.01038   0.00594  -0.0232  0.4509  0.7641
   6.910   0.9337   0.01036   0.00593  -0.0234  0.4531  0.7641
   6.940   0.9230   0.01076   0.00621  -0.0211  0.4312  0.7645
   6.950   0.9356   0.01043   0.00599  -0.0231  0.4500  0.7644
   6.960   0.9380   0.01040   0.00597  -0.0233  0.4527  0.7644
   6.970   0.9310   0.01063   0.00613  -0.0219  0.4398  0.7646
   6.980   0.9388   0.01044   0.00601  -0.0231  0.4509  0.7646
   6.990   0.9336   0.01062   0.00613  -0.0221  0.4410  0.7647
   7.000   0.9406   0.01045   0.00602  -0.0231  0.4508  0.7647
   7.010   0.9419   0.01044   0.00602  -0.0232  0.4517  0.7648
   7.020   0.9415   0.01049   0.00606  -0.0229  0.4496  0.7648
   7.030   0.9387   0.01060   0.00614  -0.0223  0.4442  0.7650
   7.040   0.9423   0.01053   0.00609  -0.0227  0.4485  0.7650
   7.050   0.9458   0.01046   0.00605  -0.0232  0.4524  0.7650
   7.060   0.9412   0.01062   0.00616  -0.0222  0.4437  0.7652
   7.070   0.9448   0.01055   0.00612  -0.0227  0.4484  0.7652
   7.080   0.9448   0.01059   0.00615  -0.0225  0.4475  0.7652
   7.090   0.9343   0.01092   0.00638  -0.0205  0.4287  0.7655
   7.100   0.9386   0.01083   0.00632  -0.0211  0.4340  0.7655
   7.110   0.9424   0.01075   0.00627  -0.0216  0.4385  0.7655
   7.120   0.9495   0.01058   0.00615  -0.0226  0.4485  0.7655
   7.130   0.9479   0.01066   0.00621  -0.0222  0.4456  0.7656
   7.140   0.9511   0.01060   0.00617  -0.0226  0.4484  0.7656
   7.150   0.9498   0.01067   0.00623  -0.0222  0.4462  0.7657
   7.160   0.9477   0.01076   0.00629  -0.0217  0.4394  0.7658
   7.170   0.9513   0.01069   0.00625  -0.0221  0.4456  0.7658
   7.180   0.9537   0.01065   0.00623  -0.0223  0.4474  0.7659
   7.190   0.9444   0.01096   0.00644  -0.0206  0.4304  0.7661
   7.200   0.9533   0.01073   0.00629  -0.0220  0.4426  0.7660
   7.210   0.9473   0.01094   0.00644  -0.0208  0.4320  0.7662
   7.220   0.9504   0.01088   0.00640  -0.0211  0.4369  0.7662
   7.230   0.9567   0.01073   0.00630  -0.0221  0.4447  0.7662
   7.240   0.9489   0.01099   0.00649  -0.0206  0.4304  0.7664
   7.250   0.9566   0.01080   0.00635  -0.0217  0.4407  0.7663
   7.260   0.9588   0.01077   0.00633  -0.0219  0.4433  0.7664
   7.270   0.9540   0.01094   0.00646  -0.0209  0.4356  0.7665
   7.280   0.9600   0.01080   0.00637  -0.0218  0.4419  0.7665
   7.290   0.9595   0.01085   0.00640  -0.0215  0.4399  0.7666
   7.300   0.9616   0.01082   0.00639  -0.0217  0.4416  0.7666
   7.310   0.9615   0.01085   0.00642  -0.0216  0.4401  0.7667
   7.320   0.9580   0.01099   0.00652  -0.0208  0.4346  0.7668
   7.330   0.9636   0.01086   0.00643  -0.0216  0.4406  0.7668
   7.340   0.9606   0.01098   0.00652  -0.0209  0.4367  0.7669
   7.350   0.9517   0.01128   0.00673  -0.0192  0.4201  0.7671
   7.360   0.9573   0.01115   0.00664  -0.0200  0.4280  0.7671
   7.370   0.9614   0.01106   0.00658  -0.0206  0.4322  0.7671
   7.380   0.9669   0.01093   0.00649  -0.0213  0.4392  0.7671
   7.390   0.9626   0.01109   0.00661  -0.0204  0.4312  0.7672
   7.400   0.9653   0.01104   0.00658  -0.0207  0.4352  0.7672
   7.410   0.9559   0.01136   0.00681  -0.0190  0.4186  0.7675
   7.420   0.9523   0.01150   0.00691  -0.0182  0.4115  0.7676
   7.430   0.9587   0.01134   0.00681  -0.0191  0.4200  0.7675
   7.440   0.9628   0.01125   0.00675  -0.0197  0.4265  0.7676
   7.450   0.9514   0.01164   0.00702  -0.0176  0.4073  0.7678
   7.460   0.9707   0.01108   0.00664  -0.0207  0.4358  0.7676
   7.470   0.9590   0.01147   0.00691  -0.0185  0.4157  0.7678
   7.480   0.9685   0.01122   0.00674  -0.0200  0.4285  0.7677
   7.490   0.9756   0.01104   0.00661  -0.0210  0.4382  0.7677
   7.500   0.9681   0.01130   0.00680  -0.0196  0.4265  0.7679
   7.510   0.9595   0.01160   0.00701  -0.0180  0.4103  0.7681
   7.520   0.9687   0.01135   0.00684  -0.0194  0.4231  0.7680
   7.530   0.9705   0.01133   0.00683  -0.0195  0.4254  0.7681
   7.540   0.9713   0.01134   0.00684  -0.0195  0.4249  0.7681
   7.550   0.9771   0.01120   0.00675  -0.0203  0.4318  0.7681
   7.560   0.9789   0.01118   0.00674  -0.0204  0.4338  0.7681
   7.570   0.9627   0.01171   0.00712  -0.0176  0.4082  0.7685
   7.580   0.9744   0.01139   0.00689  -0.0194  0.4240  0.7684
   7.590   0.9682   0.01161   0.00705  -0.0182  0.4129  0.7685
   7.600   0.9838   0.01117   0.00675  -0.0206  0.4369  0.7684
   7.610   0.9663   0.01174   0.00715  -0.0175  0.4082  0.7687
   7.620   0.9601   0.01197   0.00733  -0.0163  0.3983  0.7688
   7.630   0.9794   0.01141   0.00692  -0.0194  0.4255  0.7686
   7.640   0.9801   0.01142   0.00693  -0.0194  0.4247  0.7687
   7.650   0.9717   0.01172   0.00715  -0.0178  0.4104  0.7689
   7.660   0.9707   0.01178   0.00720  -0.0175  0.4084  0.7690
   7.670   0.9855   0.01136   0.00690  -0.0198  0.4287  0.7688
   7.680   0.9620   0.01213   0.00746  -0.0157  0.3929  0.7692
   7.690   0.9731   0.01181   0.00723  -0.0174  0.4082  0.7691
   7.700   0.9757   0.01177   0.00721  -0.0177  0.4099  0.7692
   7.710   0.9785   0.01172   0.00717  -0.0180  0.4126  0.7692
   7.730   0.9826   0.01166   0.00714  -0.0183  0.4171  0.7693
   7.740   0.9691   0.01212   0.00748  -0.0159  0.3960  0.7696
   7.750   0.9873   0.01159   0.00709  -0.0188  0.4201  0.7694
   7.760   0.9825   0.01177   0.00723  -0.0179  0.4122  0.7695
   7.770   0.9837   0.01177   0.00723  -0.0179  0.4125  0.7696
   7.780   0.9797   0.01193   0.00735  -0.0171  0.4066  0.7697
   7.790   0.9796   0.01197   0.00738  -0.0169  0.4047  0.7698
   7.800   0.9743   0.01217   0.00753  -0.0159  0.3960  0.7699
   7.810   0.9719   0.01229   0.00762  -0.0153  0.3905  0.7700
   7.820   0.9808   0.01204   0.00745  -0.0166  0.4021  0.7700
   7.830   0.9842   0.01197   0.00740  -0.0170  0.4068  0.7700
   7.840   0.9934   0.01172   0.00722  -0.0184  0.4182  0.7699
   7.850   0.9851   0.01201   0.00744  -0.0169  0.4051  0.7701
   7.860   0.9875   0.01197   0.00741  -0.0171  0.4078  0.7702
   7.870   0.9716   0.01251   0.00781  -0.0143  0.3825  0.7704
   7.880   0.9854   0.01211   0.00752  -0.0164  0.4012  0.7703
   7.890   0.9770   0.01242   0.00774  -0.0149  0.3885  0.7705
   7.900   0.9878   0.01211   0.00752  -0.0165  0.4021  0.7704
   7.910   0.9763   0.01251   0.00782  -0.0145  0.3842  0.7707
   7.920   0.9784   0.01248   0.00780  -0.0147  0.3862  0.7707
   7.930   0.9833   0.01236   0.00772  -0.0153  0.3915  0.7707
   7.940   0.9968   0.01197   0.00744  -0.0174  0.4102  0.7706
   7.950   0.9820   0.01248   0.00781  -0.0148  0.3881  0.7709
   7.960   0.9936   0.01214   0.00757  -0.0165  0.4029  0.7708
   7.970   0.9896   0.01231   0.00769  -0.0157  0.3965  0.7709
   7.980   0.9913   0.01229   0.00768  -0.0159  0.3979  0.7710
   7.990   0.9758   0.01283   0.00808  -0.0132  0.3742  0.7712
   8.000   0.9988   0.01212   0.00757  -0.0168  0.4064  0.7710
   8.010   0.9830   0.01267   0.00797  -0.0140  0.3814  0.7713
   8.020   0.9915   0.01243   0.00780  -0.0153  0.3921  0.7712
   8.030   0.9851   0.01267   0.00798  -0.0141  0.3819  0.7714
   8.040   0.9769   0.01299   0.00822  -0.0126  0.3703  0.7716
   8.050   0.9816   0.01287   0.00813  -0.0132  0.3752  0.7716
   8.060   1.0092   0.01201   0.00751  -0.0176  0.4129  0.7713
   8.070   0.9817   0.01294   0.00819  -0.0129  0.3729  0.7717
   8.080   0.9895   0.01272   0.00803  -0.0140  0.3821  0.7717
   8.090   0.9941   0.01261   0.00795  -0.0146  0.3882  0.7717
   8.100   0.9884   0.01283   0.00812  -0.0135  0.3791  0.7718
   8.110   0.9886   0.01286   0.00815  -0.0134  0.3783  0.7719
   8.120   1.0008   0.01250   0.00788  -0.0152  0.3927  0.7718
   8.130   0.9971   0.01266   0.00800  -0.0145  0.3871  0.7719
   8.150   1.0015   0.01259   0.00796  -0.0149  0.3903  0.7720
   8.160   0.9931   0.01290   0.00820  -0.0134  0.3787  0.7722
   8.170   0.9920   0.01298   0.00826  -0.0131  0.3754  0.7722
   8.180   1.0070   0.01253   0.00792  -0.0153  0.3941  0.7721
   8.190   0.9820   0.01339   0.00857  -0.0111  0.3598  0.7725
   8.200   0.9866   0.01328   0.00849  -0.0117  0.3642  0.7725
   8.210   0.9938   0.01307   0.00834  -0.0127  0.3729  0.7725
   8.220   1.0104   0.01256   0.00796  -0.0153  0.3941  0.7723
   8.230   0.9985   0.01299   0.00829  -0.0132  0.3774  0.7726
   8.240   0.9950   0.01314   0.00840  -0.0125  0.3712  0.7727
   8.250   0.9846   0.01354   0.00870  -0.0106  0.3557  0.7729
   8.260   0.9971   0.01315   0.00842  -0.0125  0.3715  0.7728
   8.270   0.9794   0.01380   0.00890  -0.0095  0.3467  0.7730
   8.280   0.9894   0.01349   0.00868  -0.0110  0.3592  0.7730
   8.290   0.9938   0.01338   0.00860  -0.0115  0.3633  0.7730
   8.300   0.9960   0.01335   0.00857  -0.0117  0.3653  0.7730
   8.310   0.9889   0.01363   0.00879  -0.0104  0.3545  0.7731
   8.320   1.0020   0.01322   0.00849  -0.0124  0.3713  0.7730
   8.330   0.9995   0.01334   0.00858  -0.0118  0.3668  0.7732
   8.340   0.9996   0.01338   0.00861  -0.0117  0.3655  0.7732
   8.350   0.9929   0.01365   0.00882  -0.0105  0.3552  0.7734
   8.360   1.0061   0.01324   0.00852  -0.0124  0.3719  0.7733
   8.370   0.9739   0.01440   0.00939  -0.0072  0.3283  0.7737
   8.380   0.9946   0.01371   0.00887  -0.0103  0.3541  0.7735
   8.390   1.0040   0.01343   0.00867  -0.0117  0.3656  0.7735
   8.400   1.0009   0.01357   0.00878  -0.0110  0.3605  0.7736
   8.410   1.0176   0.01305   0.00839  -0.0136  0.3817  0.7734
   8.420   1.0054   0.01350   0.00873  -0.0114  0.3638  0.7736
   8.430   1.0042   0.01358   0.00879  -0.0111  0.3612  0.7736
   8.470   1.0011   0.01384   0.00901  -0.0100  0.3528  0.7740
   8.480   1.0079   0.01365   0.00886  -0.0109  0.3607  0.7740
   8.490   1.0015   0.01390   0.00906  -0.0098  0.3516  0.7741
   8.500   0.9952   0.01416   0.00927  -0.0086  0.3425  0.7744
   8.510   1.0129   0.01359   0.00883  -0.0113  0.3633  0.7741
