  
       XFOIL         Version 6.94
  
 Calculated polar for: 1080                                            
  
 1 1 Reynolds number fixed          Mach number fixed         
  
 xtrf =   1.000 (top)        1.000 (bottom)  
 Mach =   0.000     Re =     2.000 e 6     Ncrit =   9.000
  
  alpha     CL        CD       CDp       CM    Top_Xtr Bot_Xtr
 ------- -------- --------- --------- -------- ------- -------
   6.000   1.3023   0.00967   0.00456  -0.0902  0.3193  0.7485
   6.010   1.3037   0.00966   0.00456  -0.0903  0.3202  0.7486
   6.020   1.3044   0.00967   0.00457  -0.0902  0.3194  0.7487
   6.030   1.3056   0.00967   0.00457  -0.0902  0.3196  0.7487
   6.040   1.3063   0.00969   0.00459  -0.0902  0.3187  0.7488
   6.050   1.3076   0.00968   0.00458  -0.0902  0.3194  0.7489
   6.060   1.3087   0.00969   0.00459  -0.0902  0.3193  0.7489
   6.070   1.3090   0.00973   0.00461  -0.0901  0.3178  0.7490
   6.080   1.3096   0.00975   0.00463  -0.0900  0.3170  0.7491
   6.090   1.3117   0.00971   0.00461  -0.0902  0.3190  0.7491
   6.100   1.3079   0.00992   0.00474  -0.0894  0.3088  0.7492
   6.110   1.3127   0.00976   0.00465  -0.0900  0.3169  0.7492
   6.120   1.3136   0.00978   0.00466  -0.0900  0.3166  0.7493
   6.130   1.3144   0.00979   0.00467  -0.0899  0.3162  0.7494
   6.140   1.3154   0.00980   0.00467  -0.0899  0.3161  0.7495
   6.150   1.3165   0.00980   0.00468  -0.0899  0.3162  0.7495
   6.160   1.3163   0.00986   0.00472  -0.0898  0.3143  0.7496
   6.170   1.3159   0.00993   0.00476  -0.0895  0.3098  0.7497
   6.190   1.3195   0.00987   0.00473  -0.0898  0.3143  0.7498
   6.200   1.3186   0.00996   0.00479  -0.0894  0.3090  0.7499
   6.210   1.3200   0.00995   0.00479  -0.0895  0.3095  0.7500
   6.220   1.3219   0.00992   0.00477  -0.0896  0.3114  0.7500
   6.230   1.3237   0.00989   0.00475  -0.0898  0.3145  0.7501
   6.240   1.3225   0.00999   0.00482  -0.0894  0.3085  0.7502
   6.250   1.3248   0.00994   0.00479  -0.0896  0.3107  0.7502
   6.260   1.3228   0.01008   0.00488  -0.0891  0.3056  0.7503
   6.270   1.3267   0.00996   0.00480  -0.0896  0.3104  0.7503
   6.280   1.3279   0.00996   0.00480  -0.0896  0.3108  0.7504
   6.290   1.3286   0.00998   0.00482  -0.0895  0.3100  0.7505
   6.300   1.3266   0.01011   0.00491  -0.0890  0.3043  0.7506
   6.310   1.3287   0.01007   0.00488  -0.0892  0.3070  0.7506
   6.320   1.3254   0.01025   0.00501  -0.0885  0.2985  0.7508
   6.330   1.3244   0.01035   0.00507  -0.0881  0.2934  0.7509
   6.340   1.3301   0.01015   0.00494  -0.0889  0.3025  0.7509
   6.350   1.3280   0.01029   0.00504  -0.0884  0.2974  0.7510
   6.360   1.3290   0.01030   0.00504  -0.0884  0.2972  0.7511
   6.370   1.3323   0.01021   0.00498  -0.0888  0.3008  0.7511
   6.380   1.3345   0.01016   0.00496  -0.0890  0.3030  0.7511
   6.390   1.3287   0.01045   0.00515  -0.0878  0.2908  0.7513
   6.400   1.3318   0.01037   0.00510  -0.0882  0.2937  0.7514
   6.420   1.3325   0.01044   0.00515  -0.0879  0.2916  0.7515
   6.430   1.3358   0.01035   0.00509  -0.0883  0.2957  0.7515
   6.440   1.3326   0.01052   0.00521  -0.0876  0.2885  0.7517
   6.450   1.3335   0.01053   0.00521  -0.0876  0.2880  0.7518
   6.460   1.3347   0.01053   0.00522  -0.0876  0.2884  0.7518
   6.470   1.3403   0.01035   0.00510  -0.0884  0.2971  0.7518
   6.480   1.3365   0.01055   0.00523  -0.0876  0.2877  0.7520
   6.490   1.3420   0.01038   0.00512  -0.0883  0.2957  0.7519
   6.500   1.3372   0.01061   0.00528  -0.0873  0.2849  0.7521
   6.510   1.3411   0.01050   0.00521  -0.0878  0.2908  0.7521
   6.520   1.3398   0.01060   0.00527  -0.0874  0.2860  0.7522
   6.530   1.3378   0.01072   0.00536  -0.0869  0.2819  0.7524
   6.540   1.3427   0.01058   0.00526  -0.0875  0.2878  0.7524
   6.550   1.3426   0.01062   0.00530  -0.0874  0.2854  0.7525
   6.560   1.3411   0.01073   0.00537  -0.0869  0.2822  0.7526
   6.570   1.3452   0.01061   0.00529  -0.0875  0.2866  0.7526
   6.580   1.3452   0.01065   0.00532  -0.0873  0.2848  0.7527
   6.590   1.3458   0.01068   0.00534  -0.0872  0.2841  0.7528
   6.600   1.3461   0.01071   0.00536  -0.0871  0.2833  0.7528
   6.610   1.3457   0.01077   0.00541  -0.0868  0.2815  0.7529
   6.620   1.3456   0.01082   0.00544  -0.0866  0.2787  0.7530
   6.630   1.3465   0.01082   0.00545  -0.0866  0.2785  0.7531
   6.640   1.3515   0.01068   0.00535  -0.0873  0.2850  0.7531
   6.650   1.3496   0.01079   0.00543  -0.0868  0.2810  0.7532
   6.660   1.3517   0.01076   0.00541  -0.0870  0.2827  0.7533
   6.670   1.3516   0.01080   0.00544  -0.0868  0.2812  0.7534
   6.680   1.3506   0.01088   0.00550  -0.0864  0.2769  0.7535
   6.690   1.3535   0.01082   0.00546  -0.0867  0.2807  0.7535
   6.700   1.3532   0.01087   0.00550  -0.0865  0.2779  0.7536
   6.710   1.3521   0.01095   0.00555  -0.0862  0.2750  0.7537
   6.720   1.3560   0.01085   0.00549  -0.0866  0.2795  0.7537
   6.730   1.3543   0.01096   0.00556  -0.0862  0.2752  0.7538
   6.740   1.3587   0.01084   0.00548  -0.0867  0.2811  0.7539
   6.750   1.3562   0.01097   0.00557  -0.0862  0.2752  0.7540
   6.760   1.3560   0.01102   0.00561  -0.0859  0.2738  0.7541
   6.770   1.3563   0.01105   0.00563  -0.0858  0.2724  0.7542
   6.780   1.3564   0.01109   0.00566  -0.0857  0.2705  0.7543
   6.790   1.3586   0.01105   0.00564  -0.0859  0.2730  0.7543
   6.800   1.3631   0.01093   0.00555  -0.0864  0.2777  0.7543
   6.810   1.3633   0.01096   0.00558  -0.0863  0.2764  0.7544
   6.820   1.3637   0.01099   0.00560  -0.0862  0.2757  0.7545
   6.830   1.3621   0.01109   0.00567  -0.0858  0.2720  0.7546
   6.840   1.3611   0.01116   0.00572  -0.0854  0.2687  0.7547
   6.850   1.3639   0.01111   0.00569  -0.0857  0.2715  0.7547
   6.860   1.3650   0.01111   0.00569  -0.0857  0.2718  0.7548
   6.870   1.3649   0.01115   0.00572  -0.0855  0.2698  0.7549
   6.880   1.3620   0.01128   0.00581  -0.0849  0.2657  0.7550
   6.890   1.3666   0.01117   0.00574  -0.0855  0.2695  0.7550
   6.900   1.3668   0.01120   0.00576  -0.0853  0.2685  0.7551
   6.910   1.3665   0.01125   0.00580  -0.0851  0.2672  0.7552
   6.920   1.3682   0.01123   0.00578  -0.0852  0.2680  0.7553
   6.930   1.3666   0.01131   0.00584  -0.0847  0.2655  0.7554
   6.940   1.3713   0.01120   0.00577  -0.0854  0.2694  0.7554
   6.950   1.3636   0.01145   0.00595  -0.0839  0.2594  0.7556
   6.960   1.3660   0.01142   0.00592  -0.0841  0.2608  0.7557
   6.970   1.3719   0.01128   0.00583  -0.0849  0.2671  0.7557
   6.980   1.3696   0.01138   0.00590  -0.0844  0.2629  0.7558
   6.990   1.3736   0.01130   0.00585  -0.0849  0.2669  0.7558
   7.000   1.3684   0.01147   0.00597  -0.0838  0.2596  0.7560
   7.010   1.3755   0.01130   0.00586  -0.0848  0.2670  0.7559
   7.020   1.3758   0.01133   0.00588  -0.0847  0.2665  0.7560
   7.030   1.3654   0.01163   0.00609  -0.0827  0.2535  0.7563
   7.040   1.3761   0.01138   0.00592  -0.0844  0.2645  0.7562
   7.050   1.3749   0.01144   0.00596  -0.0840  0.2616  0.7563
   7.060   1.3744   0.01148   0.00599  -0.0837  0.2602  0.7564
   7.070   1.3746   0.01150   0.00601  -0.0836  0.2597  0.7564
   7.080   1.3764   0.01149   0.00600  -0.0837  0.2605  0.7565
   7.120   1.3605   0.01203   0.00641  -0.0803  0.2411  0.7573
   7.130   1.3707   0.01178   0.00622  -0.0818  0.2507  0.7572
   7.140   1.3765   0.01165   0.00613  -0.0826  0.2552  0.7571
   7.150   1.3624   0.01207   0.00644  -0.0800  0.2402  0.7576
   7.160   1.3671   0.01197   0.00637  -0.0807  0.2441  0.7576
   7.170   1.3596   0.01221   0.00655  -0.0792  0.2364  0.7579
   7.180   1.3697   0.01195   0.00636  -0.0808  0.2448  0.7578
   7.190   1.3694   0.01199   0.00640  -0.0805  0.2439  0.7579
   7.200   1.3599   0.01229   0.00663  -0.0787  0.2343  0.7583
   7.210   1.3607   0.01230   0.00664  -0.0787  0.2341  0.7584
   7.220   1.3686   0.01210   0.00649  -0.0799  0.2406  0.7583
   7.230   1.3606   0.01236   0.00669  -0.0783  0.2322  0.7586
   7.240   1.3653   0.01226   0.00661  -0.0789  0.2362  0.7586
   7.250   1.3697   0.01216   0.00654  -0.0795  0.2390  0.7586
   7.260   1.3769   0.01199   0.00642  -0.0805  0.2450  0.7585
   7.270   1.3596   0.01252   0.00682  -0.0775  0.2287  0.7591
   7.280   1.3698   0.01226   0.00662  -0.0790  0.2369  0.7589
   7.290   1.3725   0.01221   0.00659  -0.0793  0.2384  0.7590
   7.300   1.3691   0.01234   0.00669  -0.0785  0.2350  0.7592
   7.310   1.3662   0.01245   0.00678  -0.0779  0.2310  0.7594
   7.320   1.3783   0.01214   0.00654  -0.0797  0.2420  0.7592
   7.330   1.3602   0.01269   0.00697  -0.0765  0.2244  0.7597
   7.340   1.3708   0.01241   0.00676  -0.0781  0.2331  0.7595
   7.350   1.3592   0.01278   0.00705  -0.0760  0.2224  0.7600
   7.360   1.3757   0.01233   0.00670  -0.0786  0.2363  0.7597
   7.370   1.3683   0.01258   0.00690  -0.0772  0.2289  0.7600
   7.380   1.3626   0.01278   0.00706  -0.0761  0.2230  0.7602
   7.390   1.3708   0.01257   0.00690  -0.0772  0.2294  0.7601
   7.400   1.3692   0.01265   0.00696  -0.0768  0.2277  0.7603
   7.410   1.3773   0.01245   0.00681  -0.0780  0.2337  0.7602
   7.420   1.3601   0.01298   0.00723  -0.0750  0.2182  0.7608
   7.430   1.3703   0.01271   0.00702  -0.0765  0.2261  0.7606
   7.440   1.3745   0.01262   0.00695  -0.0770  0.2292  0.7606
   7.450   1.3655   0.01291   0.00719  -0.0754  0.2211  0.7610
   7.460   1.3638   0.01300   0.00726  -0.0749  0.2185  0.7611
   7.470   1.3645   0.01301   0.00727  -0.0748  0.2184  0.7612
   7.480   1.3748   0.01274   0.00705  -0.0764  0.2266  0.7611
   7.490   1.3741   0.01279   0.00710  -0.0761  0.2250  0.7612
   7.500   1.3638   0.01312   0.00737  -0.0742  0.2159  0.7616
   7.510   1.3521   0.01350   0.00769  -0.0722  0.2066  0.7620
   7.520   1.3668   0.01310   0.00736  -0.0744  0.2170  0.7617
   7.530   1.3639   0.01322   0.00746  -0.0738  0.2145  0.7619
   7.540   1.3714   0.01303   0.00730  -0.0748  0.2197  0.7618
   7.550   1.3645   0.01326   0.00750  -0.0735  0.2136  0.7621
   7.560   1.3617   0.01338   0.00760  -0.0729  0.2105  0.7623
   7.570   1.3656   0.01330   0.00753  -0.0734  0.2132  0.7623
   7.580   1.3672   0.01328   0.00752  -0.0734  0.2139  0.7624
   7.590   1.3635   0.01342   0.00764  -0.0727  0.2101  0.7626
   7.600   1.3624   0.01349   0.00770  -0.0724  0.2088  0.7628
   7.610   1.3632   0.01350   0.00771  -0.0723  0.2088  0.7629
   7.620   1.3570   0.01372   0.00789  -0.0712  0.2035  0.7632
   7.630   1.3652   0.01350   0.00772  -0.0723  0.2091  0.7631
   7.640   1.3501   0.01399   0.00813  -0.0698  0.1976  0.7636
   7.650   1.3694   0.01344   0.00767  -0.0727  0.2110  0.7632
   7.660   1.3687   0.01350   0.00772  -0.0724  0.2099  0.7633
   7.670   1.3687   0.01353   0.00775  -0.0722  0.2093  0.7634
   7.680   1.3596   0.01384   0.00801  -0.0707  0.2022  0.7638
   7.690   1.3680   0.01362   0.00783  -0.0718  0.2079  0.7637
   7.700   1.3562   0.01401   0.00816  -0.0698  0.1989  0.7641
   7.710   1.3625   0.01385   0.00803  -0.0706  0.2026  0.7641
   7.720   1.3677   0.01373   0.00793  -0.0713  0.2060  0.7640
   7.730   1.3668   0.01379   0.00798  -0.0710  0.2046  0.7642
   7.750   1.3538   0.01425   0.00838  -0.0687  0.1948  0.7648
   7.760   1.3631   0.01400   0.00817  -0.0699  0.2008  0.7646
   7.770   1.3598   0.01414   0.00829  -0.0693  0.1977  0.7649
   7.780   1.3627   0.01408   0.00824  -0.0695  0.1993  0.7649
   7.790   1.3592   0.01422   0.00837  -0.0689  0.1962  0.7651
   7.800   1.3649   0.01408   0.00825  -0.0696  0.1999  0.7651
   7.820   1.3621   0.01424   0.00839  -0.0688  0.1966  0.7654
   7.830   1.3599   0.01434   0.00848  -0.0684  0.1950  0.7656
   7.840   1.3675   0.01414   0.00831  -0.0693  0.1996  0.7655
   7.850   1.3310   0.01535   0.00939  -0.0639  0.1763  0.7665
   7.860   1.3576   0.01451   0.00864  -0.0676  0.1920  0.7660
   7.870   1.3527   0.01471   0.00881  -0.0667  0.1886  0.7662
   7.880   1.3464   0.01495   0.00903  -0.0657  0.1841  0.7665
   7.890   1.3580   0.01461   0.00873  -0.0672  0.1908  0.7663
   7.910   1.3474   0.01502   0.00910  -0.0654  0.1835  0.7668
   7.920   1.3404   0.01529   0.00935  -0.0643  0.1792  0.7671
   7.930   1.3526   0.01493   0.00902  -0.0658  0.1860  0.7669
   7.940   1.3300   0.01573   0.00976  -0.0626  0.1727  0.7676
   7.950   1.3527   0.01500   0.00909  -0.0656  0.1852  0.7671
   7.970   1.3315   0.01580   0.00982  -0.0624  0.1725  0.7679
   7.980   1.3520   0.01513   0.00922  -0.0650  0.1835  0.7675
   7.990   1.3422   0.01550   0.00956  -0.0635  0.1776  0.7678
   8.000   1.3507   0.01525   0.00933  -0.0646  0.1822  0.7677
   8.010   1.3469   0.01542   0.00948  -0.0639  0.1797  0.7679
   8.020   1.3394   0.01571   0.00976  -0.0628  0.1753  0.7682
   8.030   1.3143   0.01669   0.01068  -0.0595  0.1621  0.7691
   8.040   1.3331   0.01602   0.01005  -0.0617  0.1710  0.7687
