  
       XFOIL         Version 6.94
  
 Calculated polar for: 1080                                            
  
 1 1 Reynolds number fixed          Mach number fixed         
  
 xtrf =   1.000 (top)        1.000 (bottom)  
 Mach =   0.000     Re =     2.000 e 6     Ncrit =   9.000
  
  alpha     CL        CD       CDp       CM    Top_Xtr Bot_Xtr
 ------- -------- --------- --------- -------- ------- -------
   6.020   1.0583   0.01252   0.00757  -0.0553  0.4504  0.6373
   6.030   1.0580   0.01245   0.00757  -0.0551  0.4503  0.6613
   6.040   1.0595   0.01250   0.00758  -0.0552  0.4502  0.6477
   6.050   1.0602   0.01250   0.00759  -0.0551  0.4502  0.6507
   6.060   1.0601   0.01245   0.00760  -0.0549  0.4501  0.6696
   6.070   1.0612   0.01248   0.00761  -0.0550  0.4499  0.6643
   6.080   1.0617   0.01246   0.00762  -0.0549  0.4499  0.6721
   6.090   1.0625   0.01247   0.00763  -0.0549  0.4498  0.6722
   6.100   1.0631   0.01246   0.00764  -0.0548  0.4497  0.6768
   6.110   1.0638   0.01247   0.00765  -0.0548  0.4496  0.6781
   6.120   1.0645   0.01246   0.00766  -0.0547  0.4496  0.6822
   6.130   1.0656   0.01249   0.00767  -0.0548  0.4496  0.6784
   6.140   1.0659   0.01248   0.00768  -0.0546  0.4493  0.6852
   6.150   1.0671   0.01250   0.00769  -0.0547  0.4494  0.6818
   6.160   1.0682   0.01253   0.00769  -0.0547  0.4492  0.6758
   6.170   1.0684   0.01250   0.00771  -0.0546  0.4492  0.6868
   6.180   1.0690   0.01251   0.00772  -0.0545  0.4489  0.6895
   6.190   1.0702   0.01253   0.00773  -0.0546  0.4490  0.6849
   6.200   1.0708   0.01252   0.00774  -0.0545  0.4489  0.6902
   6.210   1.0714   0.01253   0.00775  -0.0545  0.4487  0.6920
   6.220   1.0725   0.01255   0.00776  -0.0545  0.4488  0.6877
   6.230   1.0735   0.01256   0.00776  -0.0545  0.4487  0.6854
   6.240   1.0743   0.01258   0.00777  -0.0545  0.4485  0.6851
   6.250   1.0750   0.01258   0.00778  -0.0545  0.4484  0.6886
   6.260   1.0753   0.01257   0.00780  -0.0544  0.4483  0.6938
   6.270   1.0768   0.01263   0.00780  -0.0545  0.4481  0.6811
   6.280   1.0771   0.01261   0.00782  -0.0544  0.4481  0.6910
   6.290   1.0782   0.01264   0.00783  -0.0544  0.4479  0.6852
   6.300   1.0789   0.01262   0.00783  -0.0544  0.4481  0.6908
   6.310   1.0797   0.01264   0.00785  -0.0543  0.4479  0.6909
   6.320   1.0804   0.01265   0.00786  -0.0543  0.4478  0.6916
   6.330   1.0813   0.01265   0.00786  -0.0543  0.4478  0.6920
   6.340   1.0818   0.01267   0.00788  -0.0542  0.4474  0.6914
   6.350   1.0827   0.01270   0.00789  -0.0542  0.4472  0.6880
   6.360   1.0833   0.01271   0.00791  -0.0542  0.4471  0.6896
   6.370   1.0843   0.01270   0.00791  -0.0542  0.4474  0.6925
   6.380   1.0849   0.01269   0.00792  -0.0541  0.4473  0.6969
   6.390   1.0859   0.01271   0.00793  -0.0541  0.4472  0.6942
   6.400   1.0866   0.01273   0.00794  -0.0541  0.4470  0.6931
   6.410   1.0873   0.01274   0.00795  -0.0541  0.4469  0.6941
   6.420   1.0878   0.01274   0.00797  -0.0540  0.4467  0.6985
   6.430   1.0890   0.01277   0.00798  -0.0540  0.4468  0.6932
   6.440   1.0892   0.01277   0.00800  -0.0539  0.4465  0.6999
   6.450   1.0901   0.01275   0.00800  -0.0539  0.4467  0.7041
   6.460   1.0906   0.01277   0.00802  -0.0538  0.4464  0.7042
   6.470   1.0920   0.01282   0.00802  -0.0539  0.4463  0.6927
   6.480   1.0919   0.01281   0.00805  -0.0537  0.4460  0.7037
   6.490   1.0933   0.01282   0.00805  -0.0538  0.4462  0.6988
   6.500   1.0938   0.01284   0.00806  -0.0537  0.4459  0.6996
   6.510   1.0947   0.01286   0.00807  -0.0538  0.4459  0.6969
   6.520   1.0952   0.01286   0.00809  -0.0537  0.4458  0.7021
   6.530   1.0955   0.01287   0.00811  -0.0536  0.4455  0.7054
   6.540   1.0964   0.01289   0.00812  -0.0536  0.4455  0.7024
   6.550   1.0977   0.01288   0.00812  -0.0536  0.4458  0.7038
   6.560   1.0985   0.01290   0.00813  -0.0536  0.4456  0.7017
   6.570   1.0987   0.01293   0.00815  -0.0535  0.4452  0.7028
   6.580   1.0994   0.01292   0.00817  -0.0534  0.4453  0.7071
   6.590   1.1001   0.01294   0.00818  -0.0534  0.4451  0.7053
   6.600   1.1015   0.01297   0.00818  -0.0535  0.4452  0.6991
   6.610   1.1014   0.01297   0.00821  -0.0533  0.4449  0.7053
   6.620   1.1027   0.01298   0.00821  -0.0534  0.4450  0.7032
   6.630   1.1032   0.01302   0.00823  -0.0533  0.4447  0.7004
   6.640   1.1039   0.01301   0.00824  -0.0533  0.4446  0.7034
   6.650   1.1051   0.01304   0.00824  -0.0533  0.4446  0.6989
   6.660   1.1060   0.01303   0.00825  -0.0534  0.4443  0.7017
   6.670   1.1070   0.01305   0.00826  -0.0534  0.4444  0.6992
   6.680   1.1074   0.01304   0.00827  -0.0533  0.4445  0.7058
   6.690   1.1089   0.01307   0.00827  -0.0534  0.4444  0.6961
   6.700   1.1093   0.01305   0.00829  -0.0533  0.4442  0.7064
   6.710   1.1106   0.01307   0.00829  -0.0534  0.4440  0.7018
   6.720   1.1111   0.01307   0.00831  -0.0533  0.4442  0.7055
   6.730   1.1124   0.01308   0.00831  -0.0534  0.4439  0.7026
   6.740   1.1132   0.01309   0.00832  -0.0533  0.4440  0.7034
   6.750   1.1139   0.01309   0.00833  -0.0533  0.4439  0.7074
   6.760   1.1151   0.01311   0.00833  -0.0534  0.4438  0.7020
   6.770   1.1158   0.01311   0.00834  -0.0533  0.4437  0.7049
   6.780   1.1169   0.01312   0.00835  -0.0533  0.4437  0.7038
   6.790   1.1181   0.01314   0.00835  -0.0534  0.4436  0.7001
   6.800   1.1187   0.01314   0.00837  -0.0534  0.4435  0.7024
   6.810   1.1196   0.01314   0.00838  -0.0533  0.4433  0.7046
   6.820   1.1204   0.01314   0.00839  -0.0533  0.4432  0.7067
   6.830   1.1213   0.01315   0.00840  -0.0533  0.4433  0.7051
   6.840   1.1225   0.01317   0.00840  -0.0534  0.4431  0.7015
   6.850   1.1230   0.01316   0.00841  -0.0533  0.4430  0.7080
   6.860   1.1243   0.01319   0.00841  -0.0534  0.4429  0.7022
   6.870   1.1251   0.01320   0.00843  -0.0534  0.4429  0.7028
   6.880   1.1258   0.01320   0.00844  -0.0533  0.4429  0.7052
   6.890   1.1266   0.01320   0.00845  -0.0533  0.4428  0.7086
   6.900   1.1279   0.01323   0.00845  -0.0534  0.4427  0.7000
   6.910   1.1287   0.01324   0.00846  -0.0534  0.4426  0.7016
   6.920   1.1295   0.01323   0.00847  -0.0533  0.4425  0.7046
   6.930   1.1303   0.01323   0.00848  -0.0533  0.4424  0.7075
   6.940   1.1315   0.01326   0.00849  -0.0534  0.4423  0.7012
   6.950   1.1318   0.01324   0.00851  -0.0533  0.4422  0.7118
   6.960   1.1332   0.01328   0.00850  -0.0534  0.4421  0.7018
   6.970   1.1339   0.01328   0.00852  -0.0533  0.4422  0.7045
   6.980   1.1343   0.01325   0.00854  -0.0532  0.4420  0.7160
   6.990   1.1351   0.01326   0.00855  -0.0532  0.4418  0.7155
   7.000   1.1365   0.01330   0.00855  -0.0533  0.4417  0.7050
   7.010   1.1369   0.01328   0.00857  -0.0532  0.4418  0.7156
   7.020   1.1382   0.01331   0.00857  -0.0533  0.4416  0.7097
   7.030   1.1384   0.01330   0.00859  -0.0531  0.4415  0.7173
   7.040   1.1393   0.01330   0.00860  -0.0531  0.4415  0.7190
   7.050   1.1402   0.01332   0.00861  -0.0531  0.4412  0.7182
   7.060   1.1420   0.01337   0.00860  -0.0533  0.4412  0.7020
   7.070   1.1421   0.01334   0.00862  -0.0532  0.4410  0.7152
   7.080   1.1427   0.01333   0.00864  -0.0531  0.4410  0.7219
   7.090   1.1439   0.01337   0.00864  -0.0532  0.4407  0.7117
   7.100   1.1448   0.01338   0.00865  -0.0532  0.4407  0.7127
   7.110   1.1453   0.01337   0.00867  -0.0531  0.4407  0.7187
   7.120   1.1461   0.01338   0.00868  -0.0531  0.4406  0.7215
   7.130   1.1473   0.01341   0.00868  -0.0531  0.4403  0.7130
   7.140   1.1477   0.01339   0.00871  -0.0530  0.4404  0.7234
   7.150   1.1486   0.01341   0.00871  -0.0530  0.4403  0.7216
   7.160   1.1493   0.01341   0.00873  -0.0530  0.4403  0.7249
   7.170   1.1502   0.01342   0.00874  -0.0530  0.4401  0.7241
   7.180   1.1512   0.01345   0.00874  -0.0530  0.4397  0.7202
   7.190   1.1519   0.01345   0.00875  -0.0530  0.4397  0.7206
   7.200   1.1521   0.01344   0.00879  -0.0528  0.4396  0.7340
   7.210   1.1539   0.01348   0.00877  -0.0530  0.4397  0.7154
   7.220   1.1550   0.01350   0.00877  -0.0531  0.4396  0.7110
   7.230   1.1549   0.01348   0.00881  -0.0529  0.4394  0.7298
   7.240   1.1557   0.01349   0.00882  -0.0529  0.4392  0.7278
   7.250   1.1562   0.01349   0.00884  -0.0528  0.4392  0.7344
   7.260   1.1574   0.01352   0.00884  -0.0528  0.4389  0.7262
   7.270   1.1583   0.01352   0.00885  -0.0528  0.4392  0.7300
   7.280   1.1587   0.01352   0.00887  -0.0527  0.4390  0.7340
   7.290   1.1594   0.01353   0.00889  -0.0527  0.4387  0.7375
   7.300   1.1610   0.01356   0.00887  -0.0528  0.4389  0.7242
   7.310   1.1616   0.01356   0.00889  -0.0528  0.4388  0.7278
   7.320   1.1623   0.01358   0.00890  -0.0528  0.4385  0.7267
   7.330   1.1631   0.01359   0.00891  -0.0528  0.4383  0.7278
   7.340   1.1636   0.01358   0.00894  -0.0526  0.4384  0.7368
   7.350   1.1646   0.01361   0.00894  -0.0527  0.4381  0.7309
   7.360   1.1653   0.01361   0.00896  -0.0526  0.4382  0.7338
   7.370   1.1660   0.01362   0.00897  -0.0526  0.4381  0.7337
   7.380   1.1667   0.01364   0.00898  -0.0526  0.4377  0.7324
   7.390   1.1677   0.01365   0.00899  -0.0526  0.4378  0.7324
   7.400   1.1686   0.01368   0.00900  -0.0526  0.4376  0.7278
   7.410   1.1689   0.01367   0.00903  -0.0525  0.4376  0.7379
   7.420   1.1698   0.01369   0.00903  -0.0525  0.4373  0.7332
   7.430   1.1708   0.01369   0.00904  -0.0525  0.4375  0.7356
   7.440   1.1712   0.01371   0.00906  -0.0524  0.4373  0.7394
   7.450   1.1718   0.01373   0.00908  -0.0524  0.4369  0.7360
   7.460   1.1730   0.01376   0.00907  -0.0525  0.4368  0.7263
   7.470   1.1734   0.01374   0.00911  -0.0523  0.4369  0.7416
   7.480   1.1735   0.01377   0.00914  -0.0522  0.4365  0.7436
   7.490   1.1749   0.01378   0.00913  -0.0523  0.4367  0.7388
   7.500   1.1756   0.01379   0.00914  -0.0523  0.4366  0.7389
   7.510   1.1763   0.01381   0.00916  -0.0522  0.4365  0.7386
   7.520   1.1766   0.01384   0.00918  -0.0521  0.4361  0.7371
   7.530   1.1773   0.01383   0.00921  -0.0521  0.4363  0.7460
   7.540   1.1779   0.01385   0.00922  -0.0520  0.4361  0.7437
   7.550   1.1787   0.01387   0.00924  -0.0520  0.4359  0.7441
   7.560   1.1793   0.01390   0.00925  -0.0520  0.4356  0.7382
   7.570   1.1798   0.01392   0.00927  -0.0519  0.4355  0.7413
   7.580   1.1802   0.01393   0.00930  -0.0518  0.4353  0.7464
   7.590   1.1810   0.01395   0.00931  -0.0518  0.4352  0.7425
   7.600   1.1816   0.01395   0.00937  -0.0517  0.4354  0.7589
   7.610   1.1826   0.01396   0.00934  -0.0518  0.4353  0.7467
   7.620   1.1837   0.01397   0.00934  -0.0518  0.4354  0.7441
   7.630   1.1837   0.01401   0.00938  -0.0517  0.4349  0.7444
   7.640   1.1845   0.01402   0.00940  -0.0517  0.4349  0.7500
   7.650   1.1846   0.01405   0.00948  -0.0515  0.4348  0.7627
   7.660   1.1849   0.01407   0.00951  -0.0513  0.4346  0.7645
   7.670   1.1857   0.01408   0.00952  -0.0513  0.4346  0.7646
   7.680   1.1861   0.01411   0.00954  -0.0513  0.4343  0.7647
   7.690   1.1883   0.01407   0.00948  -0.0515  0.4327  0.7543
   7.700   1.1884   0.01412   0.00953  -0.0514  0.4342  0.7595
   7.710   1.1856   0.01425   0.00965  -0.0508  0.4257  0.7649
   7.720   1.1902   0.01412   0.00952  -0.0514  0.4341  0.7527
   7.730   1.1912   0.01413   0.00953  -0.0514  0.4338  0.7530
   7.740   1.1921   0.01414   0.00959  -0.0514  0.4331  0.7650
   7.750   1.1926   0.01416   0.00961  -0.0513  0.4337  0.7651
   7.760   1.1936   0.01417   0.00961  -0.0513  0.4336  0.7648
   7.770   1.1947   0.01417   0.00959  -0.0514  0.4335  0.7581
   7.780   1.1953   0.01419   0.00964  -0.0513  0.4334  0.7651
   7.790   1.1962   0.01419   0.00964  -0.0513  0.4333  0.7653
   7.800   1.1972   0.01420   0.00965  -0.0513  0.4331  0.7654
   7.810   1.1979   0.01422   0.00967  -0.0513  0.4334  0.7654
   7.820   1.1929   0.01444   0.00983  -0.0504  0.4228  0.7651
   7.830   1.1997   0.01423   0.00969  -0.0513  0.4332  0.7655
   7.840   1.2008   0.01424   0.00969  -0.0513  0.4318  0.7656
   7.850   1.2015   0.01425   0.00971  -0.0513  0.4328  0.7656
   7.860   1.2025   0.01426   0.00971  -0.0513  0.4313  0.7657
   7.870   1.2033   0.01427   0.00972  -0.0513  0.4326  0.7657
   7.880   1.2037   0.01430   0.00975  -0.0512  0.4296  0.7658
   7.890   1.2050   0.01429   0.00975  -0.0513  0.4324  0.7659
   7.900   1.2059   0.01430   0.00975  -0.0513  0.4323  0.7651
   7.910   1.2068   0.01431   0.00976  -0.0513  0.4321  0.7660
   7.920   1.2077   0.01432   0.00977  -0.0513  0.4319  0.7660
   7.930   1.2060   0.01442   0.00985  -0.0509  0.4270  0.7661
   7.940   1.2031   0.01456   0.00996  -0.0503  0.4233  0.7660
   7.950   1.2102   0.01435   0.00981  -0.0513  0.4315  0.7659
   7.960   1.2049   0.01458   0.00998  -0.0503  0.4234  0.7663
   7.970   1.2090   0.01447   0.00990  -0.0508  0.4266  0.7663
   7.980   1.2109   0.01445   0.00989  -0.0510  0.4276  0.7663
   7.990   1.2136   0.01439   0.00985  -0.0513  0.4309  0.7664
   8.000   1.2145   0.01440   0.00986  -0.0513  0.4311  0.7665
   8.010   1.2150   0.01442   0.00988  -0.0512  0.4299  0.7665
   8.020   1.2101   0.01463   0.01004  -0.0503  0.4225  0.7666
   8.030   1.2118   0.01462   0.01003  -0.0504  0.4247  0.7667
   8.040   1.2177   0.01445   0.00991  -0.0512  0.4304  0.7667
   8.050   1.2186   0.01446   0.00992  -0.0512  0.4305  0.7667
   8.060   1.2194   0.01447   0.00993  -0.0512  0.4305  0.7668
   8.070   1.2128   0.01474   0.01013  -0.0500  0.4184  0.7669
   8.080   1.2142   0.01473   0.01013  -0.0501  0.4192  0.7669
   8.090   1.2219   0.01450   0.00997  -0.0512  0.4298  0.7669
   8.100   1.2177   0.01469   0.01011  -0.0504  0.4246  0.7670
   8.110   1.2233   0.01453   0.00999  -0.0511  0.4291  0.7667
   8.120   1.2244   0.01454   0.01000  -0.0512  0.4296  0.7671
   8.130   1.2250   0.01455   0.01002  -0.0511  0.4292  0.7672
   8.140   1.2221   0.01470   0.01013  -0.0505  0.4253  0.7672
   8.150   1.2212   0.01477   0.01018  -0.0502  0.4217  0.7673
   8.160   1.2221   0.01478   0.01020  -0.0502  0.4229  0.7674
   8.170   1.2283   0.01460   0.01006  -0.0511  0.4290  0.7674
   8.180   1.2232   0.01482   0.01023  -0.0501  0.4202  0.7675
   8.190   1.2296   0.01463   0.01009  -0.0510  0.4283  0.7675
   8.200   1.2254   0.01483   0.01024  -0.0502  0.4224  0.7676
   8.210   1.2263   0.01484   0.01025  -0.0502  0.4223  0.7677
   8.220   1.2322   0.01466   0.01013  -0.0510  0.4283  0.7677
   8.230   1.2258   0.01494   0.01034  -0.0499  0.4178  0.7678
   8.240   1.2330   0.01472   0.01017  -0.0508  0.4273  0.7678
   8.250   1.2295   0.01488   0.01031  -0.0502  0.4234  0.7679
   8.260   1.2350   0.01473   0.01019  -0.0509  0.4276  0.7679
   8.270   1.2356   0.01475   0.01021  -0.0508  0.4273  0.7679
   8.280   1.2366   0.01475   0.01021  -0.0509  0.4274  0.7680
   8.290   1.2327   0.01493   0.01036  -0.0501  0.4238  0.7681
   8.300   1.2339   0.01494   0.01036  -0.0502  0.4224  0.7681
   8.310   1.2348   0.01494   0.01037  -0.0502  0.4243  0.7682
   8.320   1.2394   0.01482   0.01027  -0.0507  0.4268  0.7682
   8.330   1.2337   0.01506   0.01047  -0.0497  0.4173  0.7683
   8.340   1.2399   0.01488   0.01033  -0.0506  0.4260  0.7683
   8.350   1.2412   0.01488   0.01033  -0.0506  0.4263  0.7684
   8.360   1.2405   0.01494   0.01039  -0.0504  0.4252  0.7684
   8.370   1.2428   0.01490   0.01035  -0.0506  0.4263  0.7685
   8.380   1.2429   0.01494   0.01039  -0.0505  0.4258  0.7686
   8.390   1.2399   0.01509   0.01051  -0.0499  0.4187  0.7686
   8.400   1.2392   0.01516   0.01057  -0.0496  0.4169  0.7687
   8.410   1.2448   0.01499   0.01044  -0.0504  0.4253  0.7687
   8.420   1.2453   0.01502   0.01046  -0.0503  0.4252  0.7687
   8.430   1.2443   0.01509   0.01053  -0.0500  0.4236  0.7688
   8.440   1.2413   0.01525   0.01065  -0.0494  0.4159  0.7689
   8.450   1.2455   0.01514   0.01056  -0.0499  0.4196  0.7689
   8.460   1.2480   0.01508   0.01053  -0.0502  0.4248  0.7690
   8.470   1.2463   0.01519   0.01061  -0.0498  0.4183  0.7690
   8.480   1.2494   0.01512   0.01056  -0.0501  0.4247  0.7691
   8.490   1.2495   0.01516   0.01060  -0.0500  0.4234  0.7691
   8.500   1.2501   0.01518   0.01062  -0.0500  0.4239  0.7692
   8.510   1.2443   0.01543   0.01082  -0.0489  0.4137  0.7693
   8.520   1.2449   0.01545   0.01083  -0.0489  0.4137  0.7693
   8.530   1.2528   0.01520   0.01064  -0.0500  0.4213  0.7693
   8.540   1.2530   0.01524   0.01067  -0.0499  0.4197  0.7694
   8.550   1.2543   0.01523   0.01067  -0.0499  0.4236  0.7694
   8.560   1.2553   0.01524   0.01068  -0.0500  0.4233  0.7695
   8.570   1.2523   0.01539   0.01080  -0.0494  0.4160  0.7696
   8.580   1.2570   0.01526   0.01071  -0.0499  0.4233  0.7696
   8.590   1.2562   0.01533   0.01076  -0.0497  0.4181  0.7696
   8.600   1.2588   0.01528   0.01072  -0.0500  0.4229  0.7697
   8.610   1.2534   0.01552   0.01091  -0.0490  0.4143  0.7698
   8.620   1.2590   0.01536   0.01079  -0.0497  0.4184  0.7698
   8.630   1.2608   0.01533   0.01078  -0.0499  0.4198  0.7698
   8.640   1.2556   0.01557   0.01096  -0.0489  0.4141  0.7699
   8.650   1.2561   0.01559   0.01098  -0.0489  0.4132  0.7700
   8.660   1.2638   0.01535   0.01080  -0.0499  0.4223  0.7700
   8.670   1.2626   0.01544   0.01087  -0.0496  0.4175  0.7700
   8.680   1.2652   0.01538   0.01083  -0.0499  0.4204  0.7701
   8.690   1.2613   0.01557   0.01098  -0.0491  0.4151  0.7701
   8.700   1.2602   0.01565   0.01104  -0.0488  0.4121  0.7702
   8.710   1.2670   0.01544   0.01089  -0.0498  0.4190  0.7702
   8.720   1.2619   0.01567   0.01107  -0.0488  0.4127  0.7703
   8.730   1.2624   0.01570   0.01110  -0.0488  0.4109  0.7703
   8.740   1.2697   0.01547   0.01093  -0.0498  0.4191  0.7703
   8.750   1.2698   0.01551   0.01096  -0.0497  0.4180  0.7704
   8.760   1.2654   0.01571   0.01112  -0.0488  0.4123  0.7704
   8.770   1.2662   0.01573   0.01113  -0.0488  0.4134  0.7705
   8.780   1.2738   0.01549   0.01095  -0.0499  0.4205  0.7705
   8.790   1.2677   0.01576   0.01116  -0.0488  0.4115  0.7706
   8.800   1.2752   0.01552   0.01098  -0.0498  0.4200  0.7706
   8.810   1.2748   0.01558   0.01103  -0.0496  0.4181  0.7706
   8.820   1.2729   0.01569   0.01112  -0.0492  0.4154  0.7707
   8.830   1.2714   0.01579   0.01121  -0.0488  0.4138  0.7707
   8.840   1.2712   0.01585   0.01125  -0.0487  0.4096  0.7708
   8.850   1.2759   0.01571   0.01115  -0.0493  0.4158  0.7708
   8.860   1.2735   0.01584   0.01125  -0.0488  0.4109  0.7708
   8.870   1.2743   0.01586   0.01127  -0.0487  0.4107  0.7709
   8.910   1.2780   0.01589   0.01131  -0.0488  0.4120  0.7712
   8.920   1.2833   0.01573   0.01118  -0.0495  0.4171  0.7712
   8.930   1.2776   0.01599   0.01139  -0.0485  0.4082  0.7713
   8.940   1.2770   0.01605   0.01145  -0.0482  0.4068  0.7714
   8.950   1.2810   0.01594   0.01136  -0.0487  0.4111  0.7714
   8.960   1.2818   0.01596   0.01138  -0.0487  0.4109  0.7715
   8.970   1.2878   0.01577   0.01123  -0.0495  0.4174  0.7715
   8.980   1.2817   0.01604   0.01145  -0.0484  0.4084  0.7717
   8.990   1.2819   0.01608   0.01148  -0.0483  0.4077  0.7717
   9.000   1.2828   0.01608   0.01149  -0.0483  0.4078  0.7718
   9.010   1.2775   0.01633   0.01170  -0.0474  0.4015  0.7719
   9.020   1.2884   0.01596   0.01140  -0.0489  0.4147  0.7719
   9.030   1.2865   0.01607   0.01150  -0.0485  0.4093  0.7720
   9.040   1.2850   0.01617   0.01158  -0.0481  0.4067  0.7721
   9.050   1.2872   0.01613   0.01155  -0.0483  0.4082  0.7721
   9.060   1.2854   0.01625   0.01165  -0.0479  0.4057  0.7722
   9.070   1.2909   0.01607   0.01152  -0.0486  0.4118  0.7722
   9.080   1.2852   0.01634   0.01173  -0.0476  0.4046  0.7724
   9.090   1.2873   0.01630   0.01171  -0.0478  0.4054  0.7724
   9.100   1.2865   0.01637   0.01177  -0.0476  0.4044  0.7725
   9.110   1.2943   0.01611   0.01157  -0.0486  0.4137  0.7725
   9.120   1.2908   0.01629   0.01171  -0.0480  0.4062  0.7726
   9.130   1.2941   0.01621   0.01165  -0.0483  0.4086  0.7726
   9.140   1.2950   0.01622   0.01166  -0.0484  0.4089  0.7727
   9.150   1.2929   0.01634   0.01176  -0.0479  0.4060  0.7728
   9.160   1.2928   0.01639   0.01181  -0.0477  0.4053  0.7728
   9.170   1.2837   0.01679   0.01213  -0.0462  0.3941  0.7730
   9.180   1.2955   0.01637   0.01180  -0.0479  0.4061  0.7729
   9.190   1.2860   0.01679   0.01213  -0.0463  0.3946  0.7731
   9.200   1.2957   0.01645   0.01187  -0.0477  0.4050  0.7731
   9.210   1.2956   0.01650   0.01191  -0.0475  0.4045  0.7732
   9.220   1.2980   0.01645   0.01188  -0.0478  0.4056  0.7732
   9.230   1.2958   0.01658   0.01199  -0.0473  0.4029  0.7733
   9.240   1.2966   0.01659   0.01200  -0.0473  0.4027  0.7733
   9.250   1.3019   0.01643   0.01187  -0.0480  0.4067  0.7734
   9.260   1.2987   0.01660   0.01201  -0.0473  0.4038  0.7734
   9.270   1.2970   0.01671   0.01210  -0.0469  0.3987  0.7735
   9.280   1.2996   0.01665   0.01206  -0.0472  0.4018  0.7736
   9.290   1.2996   0.01670   0.01210  -0.0471  0.4001  0.7736
   9.300   1.3071   0.01645   0.01190  -0.0481  0.4078  0.7736
   9.310   1.2934   0.01703   0.01237  -0.0459  0.3914  0.7738
   9.320   1.3018   0.01674   0.01215  -0.0470  0.3997  0.7738
   9.330   1.2999   0.01686   0.01225  -0.0466  0.3964  0.7739
   9.340   1.2929   0.01718   0.01251  -0.0454  0.3874  0.7740
   9.350   1.2966   0.01708   0.01243  -0.0458  0.3913  0.7741
   9.360   1.3050   0.01679   0.01220  -0.0470  0.3995  0.7741
   9.370   1.3066   0.01678   0.01219  -0.0471  0.4008  0.7741
   9.380   1.2994   0.01710   0.01246  -0.0459  0.3918  0.7742
   9.390   1.3102   0.01672   0.01216  -0.0474  0.4044  0.7742
   9.400   1.3098   0.01678   0.01221  -0.0472  0.4029  0.7743
   9.410   1.3084   0.01688   0.01229  -0.0469  0.3985  0.7743
   9.420   1.3114   0.01681   0.01224  -0.0472  0.4024  0.7744
   9.430   1.2963   0.01745   0.01277  -0.0448  0.3846  0.7745
   9.440   1.3131   0.01683   0.01227  -0.0472  0.4026  0.7745
   9.450   1.3138   0.01685   0.01228  -0.0472  0.4028  0.7745
   9.460   1.3069   0.01716   0.01254  -0.0460  0.3937  0.7746
   9.470   1.3123   0.01699   0.01241  -0.0467  0.3973  0.7747
   9.480   1.3150   0.01693   0.01236  -0.0470  0.3997  0.7747
   9.490   1.3233   0.01665   0.01214  -0.0481  0.4086  0.7747
   9.500   1.3167   0.01696   0.01239  -0.0470  0.3997  0.7748
   9.510   1.3175   0.01697   0.01240  -0.0470  0.3998  0.7749
   9.520   1.3159   0.01707   0.01249  -0.0466  0.3969  0.7749
   9.530   1.3081   0.01743   0.01279  -0.0453  0.3876  0.7751
