  
       XFOIL         Version 6.94
  
 Calculated polar for: 1080                                            
  
 1 1 Reynolds number fixed          Mach number fixed         
  
 xtrf =   1.000 (top)        1.000 (bottom)  
 Mach =   0.000     Re =     2.000 e 6     Ncrit =   9.000
  
  alpha     CL        CD       CDp       CM    Top_Xtr Bot_Xtr
 ------- -------- --------- --------- -------- ------- -------
   6.000   1.1385   0.00729   0.00385  -0.1121  0.6510  0.8266
   6.010   1.1389   0.00729   0.00385  -0.1120  0.6510  0.8266
   6.020   1.1399   0.00729   0.00386  -0.1120  0.6510  0.8266
   6.030   1.1392   0.00729   0.00386  -0.1116  0.6509  0.8267
   6.040   1.1397   0.00730   0.00387  -0.1115  0.6508  0.8267
   6.050   1.1391   0.00730   0.00387  -0.1112  0.6507  0.8267
   6.060   1.1403   0.00730   0.00388  -0.1112  0.6507  0.8267
   6.070   1.1402   0.00730   0.00388  -0.1110  0.6506  0.8267
   6.080   1.1421   0.00731   0.00388  -0.1112  0.6507  0.8267
   6.090   1.1419   0.00731   0.00389  -0.1109  0.6505  0.8268
   6.100   1.1421   0.00731   0.00389  -0.1107  0.6504  0.8268
   6.110   1.1423   0.00731   0.00390  -0.1106  0.6504  0.8268
   6.120   1.1429   0.00731   0.00390  -0.1105  0.6503  0.8268
   6.130   1.1428   0.00731   0.00390  -0.1102  0.6502  0.8268
   6.140   1.1440   0.00732   0.00391  -0.1103  0.6502  0.8269
   6.150   1.1443   0.00732   0.00391  -0.1101  0.6501  0.8269
   6.160   1.1449   0.00732   0.00392  -0.1100  0.6501  0.8269
   6.170   1.1443   0.00732   0.00392  -0.1097  0.6499  0.8269
   6.180   1.1465   0.00732   0.00392  -0.1099  0.6500  0.8269
   6.190   1.1454   0.00733   0.00393  -0.1095  0.6497  0.8270
   6.200   1.1478   0.00733   0.00393  -0.1098  0.6499  0.8269
   6.210   1.1484   0.00733   0.00393  -0.1097  0.6498  0.8270
   6.220   1.1462   0.00733   0.00394  -0.1090  0.6494  0.8270
   6.230   1.1489   0.00734   0.00394  -0.1094  0.6496  0.8270
   6.240   1.1498   0.00734   0.00395  -0.1094  0.6496  0.8270
   6.250   1.1501   0.00734   0.00395  -0.1092  0.6495  0.8270
   6.260   1.1501   0.00734   0.00395  -0.1090  0.6493  0.8270
   6.270   1.1521   0.00734   0.00396  -0.1092  0.6495  0.8270
   6.280   1.1512   0.00735   0.00396  -0.1088  0.6492  0.8271
   6.290   1.1519   0.00735   0.00397  -0.1088  0.6491  0.8271
   6.300   1.1518   0.00735   0.00397  -0.1085  0.6490  0.8271
   6.310   1.1523   0.00735   0.00397  -0.1084  0.6489  0.8271
   6.320   1.1545   0.00735   0.00398  -0.1087  0.6490  0.8271
   6.330   1.1541   0.00736   0.00398  -0.1084  0.6488  0.8272
   6.340   1.1540   0.00736   0.00398  -0.1081  0.6486  0.8272
   6.350   1.1552   0.00736   0.00399  -0.1082  0.6486  0.8272
   6.360   1.1553   0.00736   0.00399  -0.1080  0.6485  0.8272
   6.370   1.1560   0.00736   0.00399  -0.1079  0.6484  0.8272
   6.380   1.1565   0.00736   0.00400  -0.1078  0.6483  0.8272
   6.390   1.1576   0.00737   0.00400  -0.1078  0.6483  0.8272
   6.400   1.1582   0.00737   0.00400  -0.1077  0.6482  0.8273
   6.410   1.1581   0.00737   0.00401  -0.1075  0.6480  0.8273
   6.420   1.1602   0.00737   0.00401  -0.1077  0.6482  0.8273
   6.430   1.1603   0.00737   0.00401  -0.1075  0.6480  0.8273
   6.440   1.1609   0.00738   0.00402  -0.1075  0.6479  0.8273
   6.450   1.1612   0.00738   0.00402  -0.1073  0.6478  0.8273
   6.460   1.1613   0.00738   0.00402  -0.1071  0.6476  0.8274
   6.470   1.1626   0.00738   0.00403  -0.1072  0.6476  0.8274
   6.480   1.1636   0.00738   0.00403  -0.1072  0.6476  0.8274
   6.490   1.1643   0.00739   0.00403  -0.1071  0.6475  0.8274
   6.500   1.1630   0.00738   0.00403  -0.1066  0.6470  0.8274
   6.510   1.1655   0.00739   0.00404  -0.1070  0.6473  0.8274
   6.520   1.1659   0.00739   0.00404  -0.1068  0.6472  0.8274
   6.530   1.1662   0.00739   0.00404  -0.1067  0.6470  0.8274
   6.540   1.1675   0.00739   0.00405  -0.1067  0.6471  0.8275
   6.550   1.1686   0.00740   0.00405  -0.1068  0.6471  0.8275
   6.560   1.1673   0.00739   0.00405  -0.1063  0.6466  0.8275
   6.570   1.1696   0.00740   0.00406  -0.1066  0.6469  0.8275
   6.580   1.1686   0.00740   0.00405  -0.1061  0.6464  0.8275
   6.590   1.1711   0.00741   0.00406  -0.1065  0.6467  0.8275
   6.600   1.1715   0.00741   0.00406  -0.1063  0.6466  0.8275
   6.610   1.1722   0.00741   0.00407  -0.1063  0.6465  0.8276
   6.620   1.1719   0.00741   0.00407  -0.1060  0.6462  0.8276
   6.630   1.1727   0.00741   0.00407  -0.1059  0.6461  0.8276
   6.640   1.1735   0.00741   0.00407  -0.1059  0.6461  0.8276
   6.650   1.1738   0.00741   0.00408  -0.1058  0.6459  0.8276
   6.660   1.1760   0.00742   0.00408  -0.1060  0.6462  0.8276
   6.670   1.1755   0.00742   0.00408  -0.1057  0.6458  0.8277
   6.680   1.1764   0.00742   0.00409  -0.1057  0.6458  0.8277
   6.690   1.1762   0.00742   0.00409  -0.1054  0.6455  0.8277
   6.700   1.1776   0.00742   0.00409  -0.1055  0.6456  0.8277
   6.710   1.1777   0.00743   0.00409  -0.1053  0.6453  0.8277
   6.720   1.1779   0.00743   0.00409  -0.1051  0.6451  0.8277
   6.730   1.1798   0.00743   0.00410  -0.1053  0.6454  0.8277
   6.740   1.1804   0.00743   0.00410  -0.1053  0.6453  0.8278
   6.750   1.1806   0.00743   0.00411  -0.1051  0.6451  0.8278
   6.760   1.1815   0.00744   0.00411  -0.1051  0.6450  0.8278
   6.770   1.1818   0.00744   0.00411  -0.1049  0.6448  0.8278
   6.780   1.1833   0.00744   0.00412  -0.1050  0.6450  0.8278
   6.790   1.1830   0.00744   0.00412  -0.1048  0.6447  0.8278
   6.800   1.1843   0.00745   0.00412  -0.1048  0.6447  0.8278
   6.810   1.1848   0.00745   0.00412  -0.1047  0.6446  0.8279
   6.820   1.1848   0.00745   0.00413  -0.1045  0.6444  0.8279
   6.830   1.1852   0.00745   0.00413  -0.1044  0.6442  0.8279
   6.840   1.1866   0.00746   0.00413  -0.1045  0.6443  0.8279
   6.850   1.1869   0.00746   0.00414  -0.1043  0.6441  0.8279
   6.860   1.1879   0.00746   0.00414  -0.1043  0.6441  0.8279
   6.870   1.1886   0.00746   0.00414  -0.1043  0.6440  0.8279
   6.880   1.1893   0.00747   0.00414  -0.1042  0.6439  0.8280
   6.890   1.1904   0.00747   0.00415  -0.1042  0.6439  0.8280
   6.900   1.1908   0.00747   0.00415  -0.1041  0.6437  0.8280
   6.910   1.1918   0.00747   0.00415  -0.1041  0.6437  0.8280
   6.920   1.1915   0.00747   0.00415  -0.1038  0.6432  0.8280
   6.930   1.1932   0.00748   0.00416  -0.1040  0.6435  0.8280
   6.940   1.1935   0.00748   0.00416  -0.1038  0.6432  0.8280
   6.950   1.1946   0.00748   0.00416  -0.1038  0.6433  0.8281
   6.960   1.1948   0.00749   0.00416  -0.1037  0.6429  0.8281
   6.970   1.1961   0.00749   0.00417  -0.1038  0.6431  0.8281
   6.980   1.1968   0.00749   0.00417  -0.1037  0.6429  0.8281
   6.990   1.1970   0.00749   0.00416  -0.1035  0.6425  0.8281
   7.000   1.1984   0.00750   0.00417  -0.1036  0.6427  0.8281
   7.010   1.1992   0.00750   0.00417  -0.1036  0.6425  0.8281
   7.020   1.2000   0.00750   0.00417  -0.1035  0.6423  0.8282
   7.030   1.2010   0.00751   0.00418  -0.1035  0.6424  0.8282
   7.040   1.2020   0.00751   0.00418  -0.1035  0.6423  0.8282
   7.050   1.2028   0.00751   0.00418  -0.1035  0.6419  0.8282
   7.060   1.2039   0.00751   0.00418  -0.1035  0.6419  0.8282
   7.070   1.2038   0.00752   0.00419  -0.1033  0.6418  0.8282
   7.080   1.2058   0.00752   0.00419  -0.1035  0.6419  0.8282
   7.090   1.2052   0.00753   0.00420  -0.1032  0.6417  0.8283
   7.100   1.2065   0.00753   0.00421  -0.1032  0.6417  0.8283
   7.110   1.2058   0.00754   0.00422  -0.1029  0.6415  0.8283
   7.120   1.2059   0.00755   0.00423  -0.1027  0.6413  0.8283
   7.130   1.2051   0.00756   0.00425  -0.1023  0.6411  0.8284
   7.140   1.2072   0.00756   0.00425  -0.1026  0.6412  0.8284
   7.150   1.2085   0.00756   0.00425  -0.1026  0.6413  0.8284
   7.160   1.2081   0.00757   0.00426  -0.1023  0.6410  0.8284
   7.170   1.2091   0.00757   0.00427  -0.1023  0.6410  0.8284
   7.180   1.2085   0.00758   0.00428  -0.1020  0.6408  0.8285
   7.190   1.2087   0.00759   0.00429  -0.1019  0.6406  0.8285
   7.200   1.2097   0.00760   0.00430  -0.1018  0.6406  0.8285
   7.210   1.2111   0.00760   0.00430  -0.1019  0.6407  0.8285
   7.220   1.2114   0.00760   0.00431  -0.1018  0.6405  0.8285
   7.230   1.2101   0.00762   0.00433  -0.1013  0.6400  0.8286
   7.240   1.2095   0.00763   0.00434  -0.1010  0.6396  0.8286
   7.250   1.2124   0.00762   0.00434  -0.1014  0.6401  0.8286
   7.260   1.2120   0.00763   0.00435  -0.1011  0.6397  0.8287
   7.270   1.2132   0.00764   0.00435  -0.1012  0.6398  0.8287
   7.280   1.2142   0.00764   0.00436  -0.1012  0.6398  0.8287
   7.290   1.2146   0.00764   0.00437  -0.1010  0.6397  0.8287
   7.300   1.2146   0.00765   0.00438  -0.1009  0.6394  0.8287
   7.310   1.2147   0.00766   0.00439  -0.1007  0.6391  0.8288
   7.320   1.2152   0.00767   0.00439  -0.1006  0.6390  0.8288
   7.330   1.2150   0.00768   0.00441  -0.1003  0.6386  0.8288
   7.340   1.2161   0.00768   0.00441  -0.1003  0.6387  0.8288
   7.350   1.2182   0.00768   0.00441  -0.1006  0.6390  0.8288
   7.360   1.2166   0.00769   0.00443  -0.1001  0.6383  0.8289
   7.370   1.2187   0.00769   0.00443  -0.1003  0.6386  0.8289
   7.380   1.2184   0.00770   0.00444  -0.1000  0.6382  0.8289
   7.390   1.2188   0.00771   0.00445  -0.0999  0.6380  0.8289
   7.400   1.2206   0.00771   0.00445  -0.1001  0.6383  0.8289
   7.410   1.2205   0.00772   0.00446  -0.0998  0.6380  0.8290
   7.420   1.2218   0.00772   0.00446  -0.0999  0.6381  0.8290
   7.430   1.2214   0.00773   0.00448  -0.0996  0.6377  0.8290
   7.440   1.2219   0.00773   0.00448  -0.0995  0.6375  0.8290
   7.450   1.2224   0.00774   0.00449  -0.0994  0.6374  0.8290
   7.460   1.2229   0.00775   0.00450  -0.0993  0.6372  0.8290
   7.470   1.2242   0.00775   0.00450  -0.0994  0.6373  0.8291
   7.480   1.2238   0.00776   0.00451  -0.0991  0.6369  0.8291
   7.490   1.2240   0.00777   0.00452  -0.0990  0.6366  0.8291
   7.500   1.2255   0.00777   0.00453  -0.0991  0.6368  0.8291
   7.510   1.2241   0.00779   0.00454  -0.0986  0.6360  0.8292
   7.520   1.2241   0.00779   0.00455  -0.0984  0.6356  0.8292
   7.530   1.2257   0.00779   0.00455  -0.0985  0.6359  0.8292
   7.540   1.2265   0.00780   0.00456  -0.0985  0.6358  0.8292
   7.550   1.2283   0.00780   0.00456  -0.0986  0.6361  0.8292
   7.560   1.2280   0.00781   0.00457  -0.0984  0.6357  0.8292
   7.570   1.2293   0.00781   0.00458  -0.0984  0.6358  0.8292
   7.580   1.2290   0.00782   0.00458  -0.0982  0.6354  0.8293
   7.590   1.2305   0.00782   0.00459  -0.0983  0.6355  0.8293
   7.600   1.2304   0.00783   0.00460  -0.0981  0.6352  0.8293
   7.610   1.2304   0.00784   0.00461  -0.0979  0.6349  0.8293
   7.620   1.2304   0.00786   0.00462  -0.0977  0.6345  0.8293
   7.630   1.2318   0.00786   0.00462  -0.0977  0.6347  0.8294
   7.640   1.2331   0.00786   0.00462  -0.0978  0.6348  0.8294
   7.650   1.2331   0.00787   0.00463  -0.0976  0.6345  0.8294
   7.660   1.2325   0.00788   0.00464  -0.0973  0.6340  0.8294
   7.670   1.2340   0.00789   0.00465  -0.0974  0.6342  0.8294
   7.680   1.2350   0.00789   0.00465  -0.0974  0.6342  0.8294
   7.690   1.2350   0.00790   0.00466  -0.0972  0.6339  0.8294
   7.700   1.2347   0.00791   0.00467  -0.0970  0.6335  0.8295
   7.710   1.2335   0.00794   0.00469  -0.0965  0.6328  0.8295
   7.720   1.2371   0.00792   0.00468  -0.0970  0.6337  0.8295
   7.730   1.2364   0.00794   0.00470  -0.0967  0.6331  0.8295
   7.740   1.2376   0.00794   0.00470  -0.0968  0.6332  0.8295
   7.750   1.2318   0.00801   0.00478  -0.0954  0.6299  0.8296
   7.760   1.2361   0.00798   0.00474  -0.0961  0.6318  0.8296
   7.770   1.2390   0.00797   0.00472  -0.0964  0.6327  0.8296
   7.780   1.2394   0.00797   0.00474  -0.0963  0.6325  0.8296
   7.790   1.2403   0.00798   0.00474  -0.0963  0.6324  0.8296
   7.800   1.2412   0.00798   0.00475  -0.0963  0.6325  0.8296
   7.810   1.2407   0.00800   0.00477  -0.0960  0.6318  0.8296
   7.820   1.2401   0.00802   0.00480  -0.0957  0.6310  0.8297
   7.830   1.2407   0.00803   0.00481  -0.0956  0.6309  0.8297
   7.840   1.2427   0.00803   0.00480  -0.0958  0.6315  0.8297
   7.850   1.2435   0.00803   0.00481  -0.0958  0.6314  0.8297
   7.860   1.2430   0.00805   0.00483  -0.0955  0.6306  0.8297
   7.870   1.2434   0.00806   0.00485  -0.0954  0.6303  0.8298
   7.880   1.2433   0.00808   0.00487  -0.0952  0.6297  0.8298
   7.890   1.2437   0.00809   0.00488  -0.0951  0.6294  0.8298
   7.900   1.2461   0.00808   0.00487  -0.0954  0.6303  0.8298
   7.910   1.2462   0.00809   0.00488  -0.0952  0.6298  0.8298
   7.920   1.2465   0.00810   0.00490  -0.0951  0.6294  0.8298
   7.930   1.2463   0.00812   0.00491  -0.0948  0.6287  0.8299
   7.940   1.2484   0.00811   0.00491  -0.0951  0.6295  0.8298
   7.950   1.2487   0.00812   0.00492  -0.0949  0.6291  0.8299
   7.960   1.2459   0.00817   0.00496  -0.0942  0.6271  0.8299
   7.970   1.2494   0.00814   0.00495  -0.0947  0.6285  0.8299
   7.980   1.2502   0.00815   0.00495  -0.0946  0.6284  0.8299
   7.990   1.2489   0.00818   0.00498  -0.0942  0.6272  0.8300
   8.000   1.2452   0.00824   0.00504  -0.0933  0.6252  0.8300
   8.010   1.2476   0.00823   0.00503  -0.0936  0.6259  0.8300
   8.020   1.2513   0.00820   0.00501  -0.0941  0.6271  0.8300
   8.030   1.2526   0.00820   0.00501  -0.0942  0.6273  0.8300
   8.040   1.2526   0.00822   0.00502  -0.0940  0.6268  0.8300
   8.050   1.2475   0.00830   0.00509  -0.0928  0.6245  0.8301
   8.060   1.2500   0.00828   0.00508  -0.0931  0.6251  0.8301
   8.070   1.2481   0.00833   0.00512  -0.0925  0.6241  0.8301
   8.080   1.2488   0.00834   0.00513  -0.0925  0.6241  0.8302
   8.090   1.2517   0.00831   0.00512  -0.0928  0.6247  0.8301
   8.100   1.2556   0.00828   0.00509  -0.0934  0.6258  0.8301
   8.110   1.2486   0.00840   0.00519  -0.0919  0.6221  0.8302
   8.120   1.2549   0.00832   0.00513  -0.0929  0.6249  0.8302
   8.130   1.2511   0.00840   0.00519  -0.0920  0.6228  0.8302
   8.140   1.2529   0.00839   0.00519  -0.0921  0.6236  0.8302
   8.150   1.2533   0.00840   0.00520  -0.0920  0.6233  0.8302
   8.160   1.2548   0.00840   0.00520  -0.0921  0.6237  0.8303
   8.170   1.2516   0.00847   0.00527  -0.0913  0.6202  0.8303
   8.180   1.2533   0.00846   0.00527  -0.0915  0.6208  0.8303
   8.190   1.2562   0.00843   0.00524  -0.0919  0.6226  0.8303
   8.200   1.2567   0.00845   0.00525  -0.0918  0.6222  0.8303
   8.210   1.2564   0.00847   0.00528  -0.0915  0.6213  0.8303
   8.220   1.2580   0.00846   0.00528  -0.0916  0.6219  0.8303
   8.230   1.2591   0.00847   0.00528  -0.0917  0.6221  0.8304
   8.240   1.2528   0.00859   0.00540  -0.0903  0.6172  0.8305
   8.250   1.2506   0.00865   0.00545  -0.0897  0.6158  0.8305
   8.260   1.2574   0.00856   0.00537  -0.0908  0.6189  0.8304
   8.270   1.2543   0.00863   0.00544  -0.0900  0.6167  0.8305
   8.280   1.2596   0.00856   0.00538  -0.0908  0.6192  0.8305
   8.290   1.2610   0.00856   0.00538  -0.0909  0.6195  0.8305
   8.300   1.2524   0.00873   0.00553  -0.0891  0.6149  0.8306
   8.310   1.2616   0.00859   0.00541  -0.0907  0.6188  0.8305
   8.320   1.2529   0.00877   0.00557  -0.0888  0.6144  0.8306
   8.330   1.2531   0.00879   0.00559  -0.0887  0.6136  0.8306
   8.340   1.2577   0.00872   0.00554  -0.0894  0.6155  0.8306
   8.350   1.2549   0.00880   0.00560  -0.0887  0.6139  0.8307
   8.360   1.2578   0.00877   0.00558  -0.0890  0.6150  0.8306
   8.370   1.2593   0.00876   0.00558  -0.0891  0.6152  0.8306
   8.380   1.2519   0.00893   0.00573  -0.0876  0.6093  0.8307
   8.400   1.2552   0.00891   0.00572  -0.0878  0.6105  0.8308
   8.410   1.2554   0.00893   0.00574  -0.0877  0.6100  0.8308
   8.420   1.2595   0.00887   0.00569  -0.0883  0.6126  0.8307
   8.430   1.2605   0.00888   0.00569  -0.0883  0.6127  0.8308
   8.440   1.2583   0.00895   0.00576  -0.0877  0.6102  0.8308
   8.450   1.2597   0.00894   0.00576  -0.0878  0.6106  0.8308
   8.460   1.2602   0.00896   0.00577  -0.0877  0.6104  0.8308
   8.470   1.2618   0.00895   0.00577  -0.0878  0.6110  0.8308
   8.480   1.2486   0.00926   0.00604  -0.0852  0.6027  0.8310
   8.490   1.2589   0.00906   0.00587  -0.0869  0.6079  0.8309
   8.500   1.2524   0.00923   0.00602  -0.0855  0.6044  0.8310
   8.510   1.2573   0.00914   0.00595  -0.0863  0.6065  0.8309
   8.520   1.2574   0.00917   0.00597  -0.0861  0.6062  0.8310
   8.530   1.2572   0.00920   0.00600  -0.0859  0.6059  0.8310
   8.540   1.2557   0.00926   0.00606  -0.0854  0.6044  0.8310
   8.550   1.2515   0.00938   0.00617  -0.0845  0.6006  0.8311
   8.560   1.2314   0.00991   0.00664  -0.0807  0.5891  0.8313
   8.570   1.2348   0.00985   0.00659  -0.0811  0.5903  0.8313
   8.580   1.2198   0.01028   0.00698  -0.0783  0.5824  0.8314
   8.590   1.2398   0.00978   0.00654  -0.0817  0.5923  0.8313
   8.600   1.2233   0.01025   0.00696  -0.0786  0.5833  0.8314
   8.610   1.2468   0.00967   0.00644  -0.0826  0.5958  0.8312
   8.620   1.2384   0.00991   0.00666  -0.0809  0.5901  0.8313
   8.630   1.2264   0.01026   0.00698  -0.0786  0.5838  0.8315
   8.640   1.2445   0.00981   0.00657  -0.0817  0.5927  0.8313
   8.650   1.2278   0.01029   0.00701  -0.0785  0.5836  0.8315
   8.660   1.2284   0.01030   0.00702  -0.0785  0.5835  0.8315
   8.670   1.2371   0.01010   0.00684  -0.0798  0.5877  0.8314
   8.680   1.2322   0.01026   0.00699  -0.0788  0.5847  0.8315
   8.690   1.1435   0.01308   0.00961  -0.0635  0.5470  0.8322
   8.700   1.1959   0.01139   0.00803  -0.0722  0.5674  0.8318
   8.710   1.2194   0.01072   0.00741  -0.0761  0.5775  0.8317
   8.720   1.2173   0.01081   0.00750  -0.0755  0.5761  0.8317
   8.730   1.2008   0.01135   0.00800  -0.0725  0.5685  0.8318
   8.740   1.1846   0.01190   0.00852  -0.0696  0.5614  0.8320
   8.750   1.2170   0.01092   0.00761  -0.0750  0.5747  0.8317
   8.760   1.2116   0.01112   0.00780  -0.0739  0.5719  0.8318
   8.770   1.1545   0.01302   0.00957  -0.0641  0.5488  0.8322
   8.780   1.1851   0.01203   0.00865  -0.0690  0.5604  0.8320
   8.800   1.1752   0.01243   0.00903  -0.0671  0.5559  0.8321
   8.810   1.1841   0.01217   0.00879  -0.0684  0.5591  0.8321
   8.820   1.1905   0.01200   0.00863  -0.0693  0.5613  0.8320
   8.830   1.1581   0.01313   0.00969  -0.0638  0.5487  0.8323
   8.840   1.1362   0.01394   0.01046  -0.0600  0.5402  0.8325
   8.850   1.1600   0.01314   0.00971  -0.0638  0.5488  0.8323
   8.860   1.1465   0.01365   0.01019  -0.0614  0.5433  0.8324
   8.870   1.1117   0.01496   0.01143  -0.0556  0.5303  0.8329
   8.880   1.1338   0.01419   0.01070  -0.0591  0.5383  0.8327
   8.890   1.1135   0.01498   0.01145  -0.0556  0.5304  0.8329
   8.900   1.1560   0.01348   0.01004  -0.0623  0.5458  0.8324
   8.910   1.1265   0.01458   0.01108  -0.0574  0.5343  0.8328
   8.920   1.1577   0.01350   0.01006  -0.0623  0.5459  0.8324
   8.930   1.0674   0.01694   0.01333  -0.0478  0.5115  0.8335
   8.940   1.1483   0.01391   0.01046  -0.0605  0.5418  0.8326
   8.950   1.1353   0.01442   0.01094  -0.0582  0.5368  0.8328
   8.960   1.1155   0.01519   0.01168  -0.0549  0.5293  0.8330
   8.970   1.0668   0.01715   0.01354  -0.0472  0.5100  0.8335
   8.980   1.0906   0.01624   0.01268  -0.0507  0.5191  0.8334
   8.990   1.0697   0.01712   0.01352  -0.0473  0.5106  0.8336
   9.000   1.1081   0.01565   0.01212  -0.0532  0.5249  0.8332
   9.010   1.0555   0.01778   0.01415  -0.0449  0.5036  0.8337
   9.020   1.0485   0.01812   0.01447  -0.0437  0.5008  0.8338
   9.030   1.1237   0.01519   0.01169  -0.0552  0.5305  0.8331
   9.040   1.1250   0.01518   0.01169  -0.0552  0.5307  0.8331
   9.050   1.0390   0.01867   0.01500  -0.0418  0.4954  0.8339
   9.060   1.0530   0.01813   0.01449  -0.0438  0.5014  0.8338
   9.070   1.0663   0.01762   0.01401  -0.0457  0.5064  0.8338
   9.080   1.0831   0.01699   0.01342  -0.0481  0.5132  0.8336
   9.090   1.0279   0.01933   0.01563  -0.0396  0.4890  0.8341
   9.100   1.0896   0.01682   0.01326  -0.0488  0.5149  0.8336
   9.110   1.0166   0.01992   0.01620  -0.0377  0.4829  0.8343
   9.120   1.0155   0.02002   0.01629  -0.0374  0.4820  0.8343
   9.130   1.0833   0.01721   0.01364  -0.0474  0.5121  0.8337
   9.140   1.0413   0.01899   0.01533  -0.0409  0.4933  0.8341
   9.150   1.0549   0.01847   0.01484  -0.0428  0.4995  0.8340
   9.160   1.0621   0.01822   0.01461  -0.0438  0.5022  0.8340
