  
       XFOIL         Version 6.94
  
 Calculated polar for: 1080                                            
  
 1 1 Reynolds number fixed          Mach number fixed         
  
 xtrf =   1.000 (top)        1.000 (bottom)  
 Mach =   0.000     Re =     2.000 e 6     Ncrit =   9.000
  
  alpha     CL        CD       CDp       CM    Top_Xtr Bot_Xtr
 ------- -------- --------- --------- -------- ------- -------
   6.000   1.3710   0.00981   0.00484  -0.1429  0.4219  0.5015
   6.010   1.3715   0.00982   0.00486  -0.1428  0.4214  0.5016
   6.020   1.3723   0.00983   0.00487  -0.1428  0.4212  0.5018
   6.030   1.3728   0.00984   0.00488  -0.1426  0.4207  0.5018
   6.040   1.3735   0.00985   0.00489  -0.1426  0.4205  0.5020
   6.050   1.3740   0.00987   0.00490  -0.1425  0.4201  0.5020
   6.060   1.3746   0.00988   0.00491  -0.1424  0.4197  0.5022
   6.070   1.3753   0.00989   0.00492  -0.1423  0.4195  0.5024
   6.080   1.3761   0.00990   0.00493  -0.1423  0.4194  0.5025
   6.090   1.3766   0.00991   0.00495  -0.1422  0.4191  0.5027
   6.100   1.3770   0.00993   0.00496  -0.1421  0.4187  0.5027
   6.110   1.3777   0.00994   0.00497  -0.1420  0.4186  0.5029
   6.120   1.3782   0.00996   0.00498  -0.1419  0.4182  0.5030
   6.130   1.3785   0.00997   0.00500  -0.1418  0.4178  0.5032
   6.140   1.3789   0.00999   0.00502  -0.1417  0.4175  0.5033
   6.150   1.3796   0.01000   0.00503  -0.1416  0.4174  0.5034
   6.160   1.3800   0.01001   0.00504  -0.1415  0.4171  0.5035
   6.170   1.3800   0.01004   0.00506  -0.1413  0.4165  0.5037
   6.180   1.3811   0.01004   0.00506  -0.1413  0.4166  0.5038
   6.190   1.3811   0.01007   0.00509  -0.1411  0.4161  0.5039
   6.200   1.3816   0.01008   0.00510  -0.1410  0.4158  0.5039
   6.210   1.3824   0.01009   0.00511  -0.1410  0.4156  0.5042
   6.220   1.3832   0.01010   0.00512  -0.1409  0.4154  0.5043
   6.230   1.3840   0.01011   0.00513  -0.1409  0.4151  0.5044
   6.240   1.3847   0.01011   0.00514  -0.1408  0.4149  0.5046
   6.250   1.3854   0.01012   0.00515  -0.1407  0.4145  0.5047
   6.260   1.3862   0.01013   0.00515  -0.1407  0.4144  0.5049
   6.270   1.3869   0.01014   0.00516  -0.1406  0.4140  0.5050
   6.280   1.3876   0.01015   0.00517  -0.1406  0.4138  0.5052
   6.290   1.3884   0.01016   0.00518  -0.1405  0.4136  0.5052
   6.300   1.3890   0.01017   0.00519  -0.1404  0.4132  0.5054
   6.310   1.3896   0.01019   0.00521  -0.1404  0.4128  0.5056
   6.320   1.3903   0.01020   0.00522  -0.1403  0.4125  0.5057
   6.330   1.3909   0.01021   0.00523  -0.1402  0.4122  0.5058
   6.340   1.3916   0.01022   0.00524  -0.1401  0.4119  0.5059
   6.350   1.3923   0.01023   0.00525  -0.1401  0.4117  0.5061
   6.360   1.3929   0.01024   0.00526  -0.1400  0.4113  0.5062
   6.370   1.3934   0.01026   0.00528  -0.1399  0.4109  0.5064
   6.380   1.3940   0.01027   0.00529  -0.1398  0.4106  0.5064
   6.390   1.3947   0.01028   0.00530  -0.1398  0.4104  0.5066
   6.400   1.3950   0.01030   0.00532  -0.1396  0.4098  0.5068
   6.410   1.3956   0.01031   0.00533  -0.1396  0.4096  0.5069
   6.420   1.3960   0.01033   0.00534  -0.1394  0.4091  0.5071
   6.430   1.3967   0.01034   0.00536  -0.1394  0.4090  0.5073
   6.440   1.3972   0.01036   0.00537  -0.1393  0.4087  0.5072
   6.450   1.3977   0.01037   0.00538  -0.1392  0.4083  0.5074
   6.460   1.3982   0.01039   0.00540  -0.1391  0.4081  0.5076
   6.470   1.3987   0.01040   0.00541  -0.1390  0.4078  0.5077
   6.480   1.3988   0.01043   0.00543  -0.1388  0.4073  0.5077
   6.490   1.3993   0.01044   0.00545  -0.1387  0.4070  0.5079
   6.500   1.3995   0.01046   0.00547  -0.1386  0.4066  0.5079
   6.510   1.4001   0.01048   0.00548  -0.1385  0.4064  0.5081
   6.520   1.4003   0.01050   0.00550  -0.1384  0.4061  0.5083
   6.530   1.4005   0.01052   0.00552  -0.1382  0.4057  0.5083
   6.540   1.4013   0.01053   0.00553  -0.1382  0.4057  0.5086
   6.550   1.4016   0.01055   0.00555  -0.1380  0.4054  0.5086
   6.560   1.4017   0.01058   0.00557  -0.1379  0.4049  0.5087
   6.570   1.4024   0.01059   0.00558  -0.1378  0.4046  0.5090
   6.580   1.4031   0.01060   0.00559  -0.1377  0.4044  0.5090
   6.590   1.4038   0.01061   0.00560  -0.1377  0.4042  0.5092
   6.600   1.4044   0.01062   0.00561  -0.1376  0.4039  0.5093
   6.610   1.4050   0.01063   0.00563  -0.1375  0.4034  0.5093
   6.620   1.4056   0.01065   0.00564  -0.1375  0.4031  0.5095
   6.630   1.4062   0.01066   0.00565  -0.1374  0.4028  0.5096
   6.640   1.4068   0.01067   0.00566  -0.1373  0.4026  0.5099
   6.650   1.4074   0.01069   0.00568  -0.1372  0.4022  0.5099
   6.660   1.4081   0.01070   0.00569  -0.1372  0.4022  0.5100
   6.670   1.4085   0.01071   0.00571  -0.1370  0.4016  0.5100
   6.680   1.4092   0.01073   0.00572  -0.1370  0.4015  0.5102
   6.690   1.4097   0.01074   0.00573  -0.1369  0.4011  0.5104
   6.700   1.4101   0.01076   0.00575  -0.1368  0.4006  0.5103
   6.710   1.4103   0.01078   0.00577  -0.1366  0.4000  0.5105
   6.720   1.4109   0.01080   0.00578  -0.1366  0.3998  0.5105
   6.750   1.4121   0.01085   0.00584  -0.1362  0.3986  0.5111
   6.760   1.4129   0.01086   0.00585  -0.1362  0.3986  0.5112
   6.770   1.4130   0.01088   0.00587  -0.1360  0.3981  0.5113
   6.780   1.4134   0.01090   0.00589  -0.1359  0.3978  0.5114
   6.790   1.4141   0.01091   0.00590  -0.1359  0.3977  0.5116
   6.800   1.4140   0.01094   0.00593  -0.1357  0.3971  0.5117
   6.810   1.4142   0.01097   0.00595  -0.1355  0.3967  0.5118
   6.820   1.4137   0.01101   0.00599  -0.1353  0.3959  0.5119
   6.830   1.4149   0.01101   0.00599  -0.1353  0.3962  0.5120
   6.840   1.4148   0.01104   0.00602  -0.1351  0.3957  0.5122
   6.850   1.4157   0.01104   0.00603  -0.1351  0.3958  0.5123
   6.860   1.4148   0.01109   0.00607  -0.1348  0.3949  0.5125
   6.870   1.4151   0.01112   0.00609  -0.1346  0.3946  0.5124
   6.880   1.4155   0.01113   0.00611  -0.1345  0.3944  0.5127
   6.890   1.4163   0.01114   0.00612  -0.1345  0.3944  0.5129
   6.900   1.4164   0.01117   0.00614  -0.1343  0.3939  0.5129
   6.910   1.4170   0.01118   0.00616  -0.1343  0.3936  0.5130
   6.920   1.4174   0.01120   0.00618  -0.1342  0.3931  0.5132
   6.930   1.4179   0.01122   0.00620  -0.1341  0.3927  0.5133
   6.940   1.4188   0.01123   0.00620  -0.1341  0.3929  0.5134
   6.950   1.4189   0.01125   0.00623  -0.1339  0.3922  0.5136
   6.960   1.4194   0.01127   0.00625  -0.1338  0.3918  0.5138
   6.970   1.4202   0.01128   0.00626  -0.1338  0.3919  0.5138
   6.980   1.4201   0.01131   0.00629  -0.1336  0.3911  0.5140
   6.990   1.4207   0.01132   0.00630  -0.1335  0.3909  0.5141
   7.000   1.4209   0.01135   0.00633  -0.1334  0.3904  0.5142
   7.010   1.4217   0.01136   0.00634  -0.1333  0.3904  0.5143
   7.020   1.4221   0.01138   0.00636  -0.1332  0.3901  0.5144
   7.030   1.4227   0.01139   0.00637  -0.1332  0.3899  0.5147
   7.040   1.4219   0.01144   0.00642  -0.1329  0.3887  0.5148
   7.050   1.4230   0.01145   0.00642  -0.1329  0.3890  0.5149
   7.060   1.4237   0.01146   0.00644  -0.1328  0.3889  0.5150
   7.070   1.4234   0.01150   0.00647  -0.1326  0.3882  0.5152
   7.080   1.4233   0.01153   0.00650  -0.1324  0.3876  0.5152
   7.090   1.4238   0.01155   0.00652  -0.1323  0.3874  0.5155
   7.100   1.4232   0.01160   0.00657  -0.1321  0.3866  0.5155
   7.110   1.4238   0.01161   0.00658  -0.1320  0.3866  0.5156
   7.120   1.4235   0.01165   0.00662  -0.1318  0.3860  0.5158
   7.130   1.4238   0.01168   0.00664  -0.1317  0.3857  0.5158
   7.140   1.4243   0.01169   0.00666  -0.1316  0.3857  0.5161
   7.150   1.4242   0.01173   0.00670  -0.1314  0.3853  0.5163
   7.160   1.4245   0.01175   0.00672  -0.1313  0.3851  0.5162
   7.170   1.4238   0.01181   0.00677  -0.1310  0.3844  0.5164
   7.180   1.4242   0.01183   0.00679  -0.1309  0.3842  0.5166
   7.190   1.4243   0.01186   0.00682  -0.1308  0.3840  0.5167
   7.200   1.4240   0.01190   0.00686  -0.1306  0.3835  0.5167
   7.210   1.4242   0.01193   0.00689  -0.1305  0.3833  0.5169
   7.220   1.4246   0.01195   0.00691  -0.1304  0.3831  0.5170
   7.230   1.4249   0.01197   0.00693  -0.1303  0.3827  0.5172
   7.240   1.4252   0.01200   0.00696  -0.1301  0.3823  0.5172
   7.250   1.4256   0.01202   0.00698  -0.1300  0.3820  0.5174
   7.260   1.4262   0.01204   0.00700  -0.1300  0.3819  0.5176
   7.270   1.4262   0.01207   0.00703  -0.1298  0.3813  0.5177
   7.280   1.4265   0.01210   0.00706  -0.1297  0.3810  0.5179
   7.290   1.4272   0.01211   0.00707  -0.1297  0.3810  0.5180
   7.300   1.4272   0.01215   0.00711  -0.1295  0.3804  0.5182
   7.310   1.4275   0.01217   0.00713  -0.1294  0.3802  0.5183
   7.320   1.4278   0.01220   0.00716  -0.1293  0.3799  0.5184
   7.330   1.4279   0.01224   0.00719  -0.1292  0.3794  0.5182
   7.340   1.4280   0.01227   0.00723  -0.1290  0.3791  0.5187
   7.350   1.4279   0.01231   0.00727  -0.1289  0.3786  0.5189
   7.360   1.4284   0.01233   0.00729  -0.1288  0.3784  0.5190
   7.370   1.4286   0.01236   0.00732  -0.1287  0.3782  0.5191
   7.380   1.4286   0.01240   0.00735  -0.1285  0.3778  0.5191
   7.390   1.4286   0.01243   0.00739  -0.1284  0.3774  0.5193
   7.400   1.4285   0.01248   0.00743  -0.1282  0.3770  0.5194
   7.410   1.4289   0.01250   0.00746  -0.1281  0.3769  0.5194
   7.420   1.4284   0.01256   0.00751  -0.1279  0.3762  0.5196
   7.430   1.4279   0.01262   0.00757  -0.1277  0.3757  0.5197
   7.440   1.4281   0.01265   0.00760  -0.1276  0.3755  0.5198
   7.450   1.4282   0.01268   0.00764  -0.1274  0.3753  0.5200
   7.460   1.4279   0.01274   0.00769  -0.1272  0.3749  0.5201
   7.470   1.4278   0.01278   0.00773  -0.1271  0.3746  0.5202
   7.480   1.4276   0.01283   0.00778  -0.1269  0.3742  0.5202
   7.490   1.4274   0.01288   0.00783  -0.1268  0.3739  0.5204
   7.500   1.4272   0.01293   0.00788  -0.1266  0.3736  0.5205
   7.510   1.4268   0.01299   0.00793  -0.1264  0.3732  0.5206
   7.520   1.4263   0.01305   0.00800  -0.1262  0.3729  0.5207
   7.530   1.4264   0.01309   0.00804  -0.1261  0.3727  0.5209
   7.540   1.4263   0.01314   0.00808  -0.1259  0.3722  0.5209
   7.550   1.4267   0.01317   0.00811  -0.1259  0.3720  0.5210
   7.560   1.4270   0.01321   0.00815  -0.1258  0.3718  0.5211
   7.570   1.4272   0.01325   0.00819  -0.1257  0.3715  0.5214
   7.580   1.4274   0.01328   0.00823  -0.1256  0.3713  0.5212
   7.590   1.4275   0.01333   0.00827  -0.1254  0.3709  0.5215
   7.630   1.4282   0.01350   0.00845  -0.1250  0.3697  0.5221
   7.640   1.4280   0.01356   0.00850  -0.1249  0.3692  0.5222
   7.650   1.4283   0.01360   0.00855  -0.1248  0.3690  0.5222
   7.660   1.4284   0.01364   0.00859  -0.1247  0.3687  0.5223
   7.670   1.4286   0.01369   0.00864  -0.1246  0.3684  0.5227
   7.680   1.4283   0.01375   0.00871  -0.1245  0.3679  0.5226
   7.690   1.4283   0.01381   0.00876  -0.1243  0.3675  0.5228
   7.700   1.4284   0.01386   0.00881  -0.1242  0.3673  0.5229
   7.710   1.4285   0.01391   0.00887  -0.1241  0.3670  0.5231
   7.720   1.4281   0.01399   0.00895  -0.1240  0.3665  0.5232
   7.730   1.4283   0.01404   0.00900  -0.1239  0.3662  0.5234
   7.740   1.4284   0.01410   0.00905  -0.1238  0.3660  0.5236
   7.750   1.4279   0.01418   0.00914  -0.1237  0.3655  0.5236
   7.760   1.4285   0.01422   0.00917  -0.1236  0.3654  0.5238
   7.770   1.4266   0.01438   0.00933  -0.1233  0.3643  0.5238
   7.780   1.4273   0.01441   0.00936  -0.1233  0.3643  0.5240
   7.790   1.4275   0.01446   0.00942  -0.1232  0.3641  0.5241
   7.800   1.4269   0.01456   0.00952  -0.1231  0.3636  0.5241
   7.810   1.4273   0.01461   0.00956  -0.1230  0.3634  0.5244
   7.820   1.4256   0.01478   0.00973  -0.1227  0.3625  0.5245
   7.830   1.4270   0.01477   0.00972  -0.1228  0.3627  0.5247
   7.840   1.4270   0.01484   0.00979  -0.1227  0.3625  0.5247
   7.850   1.4262   0.01496   0.00990  -0.1225  0.3617  0.5249
   7.860   1.4266   0.01500   0.00995  -0.1225  0.3616  0.5251
   7.870   1.4269   0.01506   0.01000  -0.1224  0.3611  0.5251
   7.880   1.4275   0.01509   0.01004  -0.1224  0.3611  0.5253
   7.890   1.4278   0.01514   0.01009  -0.1223  0.3608  0.5256
   7.900   1.4283   0.01518   0.01013  -0.1223  0.3605  0.5256
   7.910   1.4290   0.01521   0.01016  -0.1222  0.3605  0.5259
   7.920   1.4292   0.01526   0.01022  -0.1222  0.3601  0.5259
   7.930   1.4283   0.01538   0.01034  -0.1220  0.3587  0.5261
   7.940   1.4298   0.01536   0.01032  -0.1220  0.3595  0.5264
   7.950   1.4298   0.01543   0.01039  -0.1219  0.3589  0.5263
   7.960   1.4304   0.01547   0.01042  -0.1219  0.3588  0.5264
   7.970   1.4307   0.01552   0.01047  -0.1218  0.3586  0.5265
   7.980   1.4309   0.01558   0.01053  -0.1218  0.3581  0.5267
   7.990   1.4314   0.01561   0.01057  -0.1217  0.3581  0.5270
   8.000   1.4309   0.01571   0.01066  -0.1216  0.3572  0.5271
   8.010   1.4311   0.01576   0.01071  -0.1215  0.3569  0.5272
   8.020   1.4318   0.01579   0.01074  -0.1215  0.3569  0.5276
   8.030   1.4320   0.01584   0.01080  -0.1214  0.3566  0.5277
   8.040   1.4316   0.01593   0.01088  -0.1212  0.3560  0.5277
   8.050   1.4323   0.01596   0.01091  -0.1212  0.3559  0.5279
   8.060   1.4314   0.01607   0.01102  -0.1210  0.3551  0.5281
   8.070   1.4323   0.01609   0.01104  -0.1210  0.3551  0.5281
   8.080   1.4308   0.01624   0.01118  -0.1208  0.3540  0.5283
   8.090   1.4298   0.01636   0.01130  -0.1205  0.3532  0.5284
   8.100   1.4310   0.01635   0.01130  -0.1206  0.3535  0.5286
   8.110   1.4333   0.01629   0.01124  -0.1207  0.3543  0.5288
   8.120   1.4328   0.01638   0.01133  -0.1206  0.3538  0.5291
   8.130   1.4308   0.01655   0.01149  -0.1202  0.3526  0.5290
   8.140   1.4313   0.01659   0.01153  -0.1202  0.3525  0.5292
   8.150   1.4313   0.01665   0.01159  -0.1201  0.3522  0.5294
   8.160   1.4318   0.01669   0.01163  -0.1200  0.3522  0.5295
   8.170   1.4312   0.01678   0.01172  -0.1199  0.3516  0.5295
   8.180   1.4322   0.01679   0.01174  -0.1199  0.3518  0.5299
   8.190   1.4311   0.01691   0.01185  -0.1196  0.3511  0.5298
   8.200   1.4315   0.01695   0.01189  -0.1196  0.3509  0.5302
   8.210   1.4322   0.01697   0.01191  -0.1196  0.3510  0.5302
   8.220   1.4312   0.01709   0.01202  -0.1193  0.3494  0.5303
   8.230   1.4329   0.01706   0.01200  -0.1194  0.3504  0.5307
   8.240   1.4335   0.01709   0.01203  -0.1194  0.3504  0.5308
   8.250   1.4336   0.01715   0.01209  -0.1193  0.3498  0.5309
   8.260   1.4339   0.01719   0.01213  -0.1192  0.3495  0.5309
   8.270   1.4337   0.01726   0.01220  -0.1191  0.3488  0.5311
   8.280   1.4346   0.01728   0.01222  -0.1191  0.3491  0.5314
   8.290   1.4350   0.01731   0.01225  -0.1190  0.3490  0.5316
   8.300   1.4345   0.01740   0.01234  -0.1189  0.3480  0.5314
   8.310   1.4353   0.01742   0.01236  -0.1188  0.3481  0.5317
   8.320   1.4350   0.01750   0.01243  -0.1187  0.3475  0.5319
   8.330   1.4354   0.01754   0.01247  -0.1186  0.3474  0.5320
   8.340   1.4357   0.01758   0.01252  -0.1186  0.3471  0.5323
   8.350   1.4360   0.01763   0.01256  -0.1185  0.3469  0.5324
   8.360   1.4359   0.01769   0.01263  -0.1184  0.3465  0.5325
   8.400   1.4364   0.01790   0.01284  -0.1180  0.3453  0.5332
   8.410   1.4366   0.01795   0.01289  -0.1179  0.3451  0.5333
   8.420   1.4372   0.01798   0.01292  -0.1179  0.3451  0.5334
   8.430   1.4371   0.01804   0.01298  -0.1178  0.3447  0.5337
   8.440   1.4366   0.01813   0.01306  -0.1176  0.3440  0.5337
   8.450   1.4367   0.01818   0.01311  -0.1175  0.3439  0.5340
   8.460   1.4370   0.01822   0.01316  -0.1174  0.3437  0.5341
   8.470   1.4370   0.01828   0.01322  -0.1173  0.3434  0.5341
   8.480   1.4339   0.01850   0.01342  -0.1169  0.3417  0.5343
   8.490   1.4375   0.01837   0.01331  -0.1172  0.3431  0.5346
   8.500   1.4344   0.01859   0.01351  -0.1167  0.3415  0.5344
   8.510   1.4370   0.01851   0.01345  -0.1169  0.3424  0.5349
   8.520   1.4366   0.01860   0.01353  -0.1167  0.3419  0.5349
   8.530   1.4332   0.01882   0.01374  -0.1163  0.3402  0.5350
   8.540   1.4373   0.01867   0.01361  -0.1166  0.3417  0.5354
   8.550   1.4360   0.01880   0.01373  -0.1164  0.3410  0.5355
   8.580   1.4362   0.01896   0.01389  -0.1161  0.3403  0.5360
   8.590   1.4365   0.01900   0.01393  -0.1160  0.3400  0.5360
   8.600   1.4370   0.01904   0.01397  -0.1159  0.3399  0.5364
   8.610   1.4374   0.01908   0.01401  -0.1159  0.3397  0.5363
   8.620   1.4378   0.01912   0.01405  -0.1158  0.3395  0.5364
   8.630   1.4383   0.01915   0.01408  -0.1157  0.3394  0.5368
   8.640   1.4385   0.01920   0.01413  -0.1157  0.3391  0.5371
   8.650   1.4361   0.01937   0.01429  -0.1153  0.3366  0.5370
   8.660   1.4394   0.01926   0.01420  -0.1156  0.3388  0.5375
   8.670   1.4396   0.01931   0.01424  -0.1155  0.3385  0.5375
   8.680   1.4393   0.01938   0.01431  -0.1153  0.3377  0.5375
   8.690   1.4402   0.01939   0.01433  -0.1153  0.3379  0.5378
   8.700   1.4406   0.01943   0.01437  -0.1153  0.3377  0.5378
   8.710   1.4409   0.01947   0.01441  -0.1152  0.3375  0.5381
   8.720   1.4401   0.01957   0.01450  -0.1150  0.3364  0.5383
   8.730   1.4414   0.01957   0.01450  -0.1150  0.3369  0.5383
   8.740   1.4416   0.01961   0.01455  -0.1149  0.3367  0.5388
   8.750   1.4416   0.01967   0.01460  -0.1148  0.3363  0.5390
   8.760   1.4424   0.01969   0.01462  -0.1148  0.3364  0.5391
   8.770   1.4422   0.01975   0.01469  -0.1147  0.3359  0.5389
   8.780   1.4424   0.01980   0.01474  -0.1146  0.3356  0.5394
   8.790   1.4429   0.01984   0.01477  -0.1146  0.3356  0.5395
   8.800   1.4426   0.01991   0.01484  -0.1144  0.3351  0.5398
   8.810   1.4426   0.01997   0.01490  -0.1143  0.3348  0.5397
   8.820   1.4436   0.01997   0.01491  -0.1143  0.3350  0.5399
   8.830   1.4427   0.02008   0.01501  -0.1141  0.3342  0.5401
   8.840   1.4438   0.02008   0.01502  -0.1141  0.3345  0.5403
   8.850   1.4398   0.02034   0.01526  -0.1136  0.3322  0.5401
   8.860   1.4438   0.02020   0.01513  -0.1139  0.3339  0.5405
   8.870   1.4432   0.02029   0.01522  -0.1137  0.3333  0.5408
   8.880   1.4415   0.02043   0.01535  -0.1135  0.3323  0.5407
   8.890   1.4423   0.02044   0.01537  -0.1134  0.3324  0.5408
   8.900   1.4408   0.02058   0.01550  -0.1132  0.3314  0.5410
   8.910   1.4440   0.02048   0.01541  -0.1134  0.3326  0.5414
   8.920   1.4422   0.02062   0.01554  -0.1131  0.3316  0.5414
   8.930   1.4440   0.02059   0.01551  -0.1132  0.3321  0.5415
   8.940   1.4440   0.02065   0.01558  -0.1131  0.3318  0.5417
   8.950   1.4441   0.02070   0.01562  -0.1130  0.3316  0.5420
   8.960   1.4400   0.02096   0.01587  -0.1124  0.3290  0.5417
   8.970   1.4406   0.02099   0.01589  -0.1124  0.3290  0.5420
