  
       XFOIL         Version 6.94
  
 Calculated polar for: 1080                                            
  
 1 1 Reynolds number fixed          Mach number fixed         
  
 xtrf =   1.000 (top)        1.000 (bottom)  
 Mach =   0.000     Re =     2.000 e 6     Ncrit =   9.000
  
  alpha     CL        CD       CDp       CM    Top_Xtr Bot_Xtr
 ------- -------- --------- --------- -------- ------- -------
   6.000   1.1347   0.00913   0.00409  -0.0644  0.3177  0.7382
   6.010   1.1357   0.00914   0.00410  -0.0644  0.3177  0.7383
   6.020   1.1368   0.00914   0.00410  -0.0644  0.3176  0.7384
   6.030   1.1378   0.00915   0.00411  -0.0644  0.3173  0.7384
   6.040   1.1388   0.00915   0.00411  -0.0644  0.3172  0.7385
   6.050   1.1398   0.00916   0.00412  -0.0644  0.3171  0.7386
   6.060   1.1408   0.00917   0.00413  -0.0643  0.3169  0.7387
   6.070   1.1419   0.00917   0.00413  -0.0643  0.3168  0.7387
   6.080   1.1428   0.00918   0.00414  -0.0643  0.3166  0.7388
   6.090   1.1439   0.00918   0.00414  -0.0643  0.3166  0.7389
   6.100   1.1449   0.00919   0.00415  -0.0643  0.3164  0.7389
   6.110   1.1459   0.00919   0.00415  -0.0643  0.3162  0.7390
   6.120   1.1469   0.00920   0.00416  -0.0643  0.3161  0.7391
   6.130   1.1479   0.00921   0.00416  -0.0643  0.3159  0.7391
   6.140   1.1489   0.00921   0.00417  -0.0643  0.3158  0.7392
   6.150   1.1498   0.00922   0.00418  -0.0642  0.3154  0.7393
   6.160   1.1508   0.00923   0.00418  -0.0642  0.3154  0.7394
   6.170   1.1518   0.00923   0.00419  -0.0642  0.3152  0.7394
   6.180   1.1529   0.00924   0.00419  -0.0642  0.3152  0.7395
   6.190   1.1538   0.00925   0.00420  -0.0642  0.3149  0.7396
   6.200   1.1547   0.00925   0.00421  -0.0642  0.3147  0.7396
   6.210   1.1558   0.00926   0.00421  -0.0642  0.3147  0.7397
   6.220   1.1568   0.00927   0.00422  -0.0641  0.3145  0.7398
   6.230   1.1577   0.00927   0.00423  -0.0641  0.3144  0.7398
   6.240   1.1587   0.00928   0.00423  -0.0641  0.3142  0.7399
   6.250   1.1597   0.00929   0.00424  -0.0641  0.3141  0.7400
   6.260   1.1607   0.00929   0.00425  -0.0641  0.3139  0.7401
   6.270   1.1617   0.00930   0.00425  -0.0641  0.3138  0.7401
   6.280   1.1626   0.00931   0.00426  -0.0641  0.3137  0.7402
   6.290   1.1636   0.00931   0.00426  -0.0640  0.3136  0.7403
   6.300   1.1645   0.00933   0.00427  -0.0640  0.3133  0.7403
   6.310   1.1654   0.00933   0.00428  -0.0640  0.3131  0.7404
   6.320   1.1664   0.00934   0.00428  -0.0640  0.3130  0.7405
   6.330   1.1673   0.00935   0.00429  -0.0639  0.3128  0.7406
   6.340   1.1683   0.00935   0.00430  -0.0639  0.3127  0.7406
   6.350   1.1693   0.00936   0.00430  -0.0639  0.3126  0.7407
   6.360   1.1701   0.00937   0.00431  -0.0639  0.3123  0.7408
   6.370   1.1711   0.00938   0.00432  -0.0639  0.3122  0.7409
   6.380   1.1720   0.00939   0.00433  -0.0638  0.3120  0.7409
   6.390   1.1730   0.00939   0.00433  -0.0638  0.3119  0.7410
   6.400   1.1739   0.00940   0.00434  -0.0638  0.3117  0.7411
   6.410   1.1749   0.00941   0.00435  -0.0638  0.3116  0.7412
   6.420   1.1758   0.00942   0.00436  -0.0638  0.3115  0.7412
   6.430   1.1768   0.00943   0.00436  -0.0637  0.3113  0.7413
   6.440   1.1777   0.00944   0.00437  -0.0637  0.3111  0.7414
   6.450   1.1785   0.00945   0.00438  -0.0637  0.3109  0.7415
   6.460   1.1795   0.00945   0.00439  -0.0637  0.3108  0.7415
   6.470   1.1804   0.00946   0.00439  -0.0636  0.3106  0.7416
   6.480   1.1813   0.00947   0.00440  -0.0636  0.3104  0.7417
   6.490   1.1823   0.00948   0.00441  -0.0636  0.3103  0.7418
   6.500   1.1834   0.00948   0.00441  -0.0636  0.3102  0.7418
   6.510   1.1844   0.00949   0.00442  -0.0636  0.3102  0.7419
   6.520   1.1854   0.00949   0.00442  -0.0636  0.3100  0.7420
   6.530   1.1865   0.00950   0.00443  -0.0636  0.3099  0.7420
   6.540   1.1875   0.00950   0.00443  -0.0636  0.3099  0.7421
   6.550   1.1886   0.00950   0.00444  -0.0636  0.3098  0.7422
   6.560   1.1896   0.00951   0.00444  -0.0636  0.3096  0.7423
   6.570   1.1906   0.00951   0.00445  -0.0635  0.3095  0.7423
   6.580   1.1916   0.00952   0.00445  -0.0635  0.3094  0.7424
   6.590   1.1927   0.00952   0.00446  -0.0635  0.3093  0.7425
   6.600   1.1937   0.00953   0.00446  -0.0635  0.3092  0.7426
   6.610   1.1947   0.00953   0.00447  -0.0635  0.3091  0.7426
   6.620   1.1957   0.00954   0.00447  -0.0635  0.3090  0.7427
   6.630   1.1967   0.00954   0.00448  -0.0635  0.3089  0.7428
   6.640   1.1978   0.00955   0.00448  -0.0635  0.3088  0.7429
   6.650   1.1988   0.00955   0.00449  -0.0635  0.3087  0.7429
   6.660   1.1998   0.00956   0.00449  -0.0635  0.3086  0.7430
   6.670   1.2008   0.00956   0.00450  -0.0635  0.3084  0.7431
   6.680   1.2018   0.00957   0.00450  -0.0635  0.3084  0.7432
   6.690   1.2028   0.00957   0.00451  -0.0634  0.3082  0.7432
   6.700   1.2038   0.00958   0.00451  -0.0634  0.3081  0.7433
   6.710   1.2048   0.00958   0.00452  -0.0634  0.3080  0.7434
   6.720   1.2058   0.00959   0.00453  -0.0634  0.3079  0.7435
   6.730   1.2068   0.00959   0.00453  -0.0634  0.3078  0.7435
   6.740   1.2078   0.00960   0.00454  -0.0634  0.3077  0.7436
   6.750   1.2088   0.00961   0.00454  -0.0634  0.3076  0.7437
   6.760   1.2098   0.00961   0.00455  -0.0634  0.3074  0.7437
   6.770   1.2108   0.00962   0.00455  -0.0633  0.3073  0.7438
   6.780   1.2118   0.00962   0.00456  -0.0633  0.3072  0.7439
   6.790   1.2127   0.00963   0.00457  -0.0633  0.3070  0.7440
   6.800   1.2138   0.00964   0.00457  -0.0633  0.3069  0.7440
   6.810   1.2147   0.00964   0.00458  -0.0633  0.3068  0.7441
   6.820   1.2157   0.00965   0.00458  -0.0633  0.3067  0.7442
   6.830   1.2167   0.00965   0.00459  -0.0633  0.3066  0.7442
   6.840   1.2177   0.00966   0.00459  -0.0633  0.3065  0.7443
   6.850   1.2186   0.00967   0.00460  -0.0632  0.3063  0.7444
   6.860   1.2196   0.00967   0.00461  -0.0632  0.3062  0.7445
   6.870   1.2206   0.00968   0.00461  -0.0632  0.3061  0.7445
   6.880   1.2216   0.00968   0.00462  -0.0632  0.3060  0.7446
   6.890   1.2225   0.00969   0.00463  -0.0632  0.3058  0.7447
   6.900   1.2235   0.00970   0.00463  -0.0631  0.3057  0.7447
   6.910   1.2244   0.00971   0.00464  -0.0631  0.3056  0.7448
   6.920   1.2254   0.00971   0.00464  -0.0631  0.3055  0.7449
   6.930   1.2263   0.00972   0.00465  -0.0631  0.3053  0.7449
   6.940   1.2273   0.00973   0.00466  -0.0631  0.3052  0.7450
   6.950   1.2282   0.00973   0.00466  -0.0631  0.3051  0.7451
   6.960   1.2292   0.00974   0.00467  -0.0630  0.3050  0.7451
   6.970   1.2301   0.00975   0.00468  -0.0630  0.3048  0.7452
   6.980   1.2311   0.00976   0.00468  -0.0630  0.3047  0.7453
   6.990   1.2320   0.00976   0.00469  -0.0630  0.3046  0.7453
   7.000   1.2330   0.00977   0.00470  -0.0630  0.3045  0.7454
   7.010   1.2338   0.00978   0.00470  -0.0629  0.3043  0.7455
