  
       XFOIL         Version 6.94
  
 Calculated polar for: 1080                                            
  
 1 1 Reynolds number fixed          Mach number fixed         
  
 xtrf =   1.000 (top)        1.000 (bottom)  
 Mach =   0.000     Re =     2.000 e 6     Ncrit =   9.000
  
  alpha     CL        CD       CDp       CM    Top_Xtr Bot_Xtr
 ------- -------- --------- --------- -------- ------- -------
   6.000   1.1918   0.00826   0.00374  -0.0904  0.3847  0.7705
   6.010   1.1928   0.00827   0.00374  -0.0904  0.3844  0.7707
   6.020   1.1938   0.00827   0.00375  -0.0904  0.3841  0.7710
   6.030   1.1949   0.00828   0.00375  -0.0904  0.3839  0.7713
   6.040   1.1959   0.00828   0.00376  -0.0903  0.3836  0.7713
   6.050   1.1969   0.00829   0.00377  -0.0903  0.3833  0.7717
   6.060   1.1979   0.00830   0.00377  -0.0903  0.3831  0.7720
   6.070   1.1988   0.00830   0.00378  -0.0903  0.3826  0.7723
   6.080   1.1998   0.00831   0.00378  -0.0903  0.3824  0.7725
   6.090   1.2008   0.00832   0.00379  -0.0903  0.3820  0.7729
   6.100   1.2018   0.00832   0.00380  -0.0902  0.3818  0.7732
   6.110   1.2028   0.00833   0.00380  -0.0902  0.3815  0.7733
   6.120   1.2037   0.00834   0.00381  -0.0902  0.3811  0.7735
   6.130   1.2046   0.00835   0.00382  -0.0902  0.3808  0.7739
   6.140   1.2057   0.00835   0.00382  -0.0902  0.3806  0.7740
   6.150   1.2065   0.00836   0.00383  -0.0901  0.3802  0.7742
   6.160   1.2075   0.00837   0.00384  -0.0901  0.3798  0.7744
   6.170   1.2084   0.00838   0.00384  -0.0901  0.3796  0.7747
   6.180   1.2093   0.00839   0.00385  -0.0901  0.3792  0.7751
   6.190   1.2103   0.00840   0.00386  -0.0900  0.3790  0.7751
   6.200   1.2112   0.00841   0.00387  -0.0900  0.3787  0.7756
   6.210   1.2120   0.00842   0.00387  -0.0900  0.3782  0.7756
   6.220   1.2130   0.00843   0.00388  -0.0899  0.3780  0.7758
   6.230   1.2139   0.00843   0.00389  -0.0899  0.3778  0.7761
   6.240   1.2147   0.00845   0.00390  -0.0899  0.3773  0.7765
   6.250   1.2155   0.00846   0.00391  -0.0898  0.3768  0.7766
   6.270   1.2172   0.00848   0.00393  -0.0897  0.3763  0.7770
   6.280   1.2181   0.00849   0.00393  -0.0897  0.3761  0.7771
   6.290   1.2190   0.00850   0.00394  -0.0897  0.3759  0.7775
   6.300   1.2198   0.00851   0.00395  -0.0896  0.3755  0.7776
   6.310   1.2209   0.00851   0.00396  -0.0896  0.3754  0.7777
   6.320   1.2218   0.00852   0.00396  -0.0896  0.3750  0.7781
   6.330   1.2229   0.00852   0.00397  -0.0896  0.3749  0.7782
   6.340   1.2238   0.00853   0.00398  -0.0896  0.3744  0.7783
   6.350   1.2248   0.00854   0.00398  -0.0896  0.3742  0.7786
   6.360   1.2257   0.00854   0.00399  -0.0895  0.3738  0.7788
   6.370   1.2268   0.00855   0.00399  -0.0895  0.3738  0.7792
   6.380   1.2277   0.00855   0.00400  -0.0895  0.3733  0.7792
   6.390   1.2286   0.00856   0.00401  -0.0895  0.3730  0.7795
   6.400   1.2296   0.00857   0.00401  -0.0895  0.3728  0.7797
   6.410   1.2306   0.00857   0.00402  -0.0894  0.3725  0.7800
   6.420   1.2315   0.00858   0.00403  -0.0894  0.3722  0.7802
   6.430   1.2324   0.00859   0.00403  -0.0894  0.3719  0.7805
   6.440   1.2333   0.00860   0.00404  -0.0893  0.3713  0.7806
   6.450   1.2344   0.00860   0.00405  -0.0893  0.3714  0.7809
   6.460   1.2352   0.00861   0.00406  -0.0893  0.3708  0.7809
   6.470   1.2361   0.00862   0.00406  -0.0893  0.3705  0.7812
   6.480   1.2370   0.00863   0.00407  -0.0892  0.3702  0.7815
   6.490   1.2379   0.00864   0.00408  -0.0892  0.3698  0.7817
   6.500   1.2389   0.00864   0.00409  -0.0892  0.3698  0.7820
   6.510   1.2396   0.00866   0.00410  -0.0891  0.3692  0.7823
   6.520   1.2405   0.00866   0.00410  -0.0891  0.3689  0.7825
   6.530   1.2415   0.00867   0.00411  -0.0891  0.3689  0.7826
   6.540   1.2423   0.00868   0.00412  -0.0890  0.3684  0.7828
   6.550   1.2430   0.00870   0.00413  -0.0890  0.3679  0.7833
   6.560   1.2438   0.00871   0.00414  -0.0889  0.3675  0.7832
   6.570   1.2449   0.00871   0.00414  -0.0889  0.3675  0.7835
   6.580   1.2455   0.00873   0.00416  -0.0888  0.3669  0.7838
   6.590   1.2463   0.00874   0.00417  -0.0888  0.3666  0.7840
   6.600   1.2473   0.00875   0.00417  -0.0888  0.3665  0.7843
   6.610   1.2479   0.00876   0.00418  -0.0887  0.3660  0.7844
   6.620   1.2488   0.00877   0.00419  -0.0887  0.3658  0.7846
   6.630   1.2498   0.00878   0.00420  -0.0887  0.3658  0.7850
   6.640   1.2504   0.00880   0.00421  -0.0886  0.3652  0.7850
   6.650   1.2513   0.00880   0.00422  -0.0885  0.3648  0.7853
   6.660   1.2524   0.00881   0.00422  -0.0885  0.3649  0.7855
   6.670   1.2533   0.00882   0.00423  -0.0885  0.3643  0.7857
   6.680   1.2543   0.00882   0.00424  -0.0885  0.3643  0.7860
   6.690   1.2552   0.00883   0.00424  -0.0885  0.3639  0.7862
   6.700   1.2561   0.00883   0.00425  -0.0884  0.3636  0.7864
   6.710   1.2572   0.00884   0.00425  -0.0884  0.3636  0.7866
   6.720   1.2580   0.00885   0.00426  -0.0884  0.3630  0.7868
   6.730   1.2590   0.00886   0.00427  -0.0884  0.3628  0.7870
   6.740   1.2599   0.00887   0.00428  -0.0883  0.3624  0.7872
   6.750   1.2609   0.00887   0.00428  -0.0883  0.3625  0.7874
   6.760   1.2618   0.00888   0.00429  -0.0883  0.3621  0.7877
   6.790   1.2644   0.00890   0.00431  -0.0882  0.3611  0.7882
   6.800   1.2652   0.00891   0.00432  -0.0881  0.3606  0.7885
   6.810   1.2662   0.00892   0.00433  -0.0881  0.3606  0.7887
   6.820   1.2670   0.00893   0.00434  -0.0881  0.3601  0.7890
   6.830   1.2679   0.00893   0.00435  -0.0880  0.3598  0.7893
   6.840   1.2687   0.00894   0.00435  -0.0880  0.3594  0.7894
   6.850   1.2695   0.00895   0.00436  -0.0879  0.3591  0.7898
   6.860   1.2703   0.00896   0.00437  -0.0879  0.3588  0.7900
   6.870   1.2712   0.00897   0.00438  -0.0879  0.3587  0.7902
   6.880   1.2719   0.00898   0.00439  -0.0878  0.3583  0.7905
   6.890   1.2728   0.00899   0.00440  -0.0878  0.3580  0.7908
   6.900   1.2736   0.00900   0.00441  -0.0877  0.3578  0.7911
   6.910   1.2744   0.00901   0.00442  -0.0877  0.3575  0.7913
   6.920   1.2752   0.00902   0.00443  -0.0876  0.3572  0.7915
   6.930   1.2760   0.00903   0.00444  -0.0876  0.3569  0.7919
   6.940   1.2766   0.00905   0.00445  -0.0875  0.3565  0.7920
   6.950   1.2774   0.00906   0.00446  -0.0874  0.3562  0.7923
   6.960   1.2782   0.00906   0.00447  -0.0874  0.3560  0.7925
   6.970   1.2789   0.00908   0.00448  -0.0873  0.3557  0.7929
   6.980   1.2796   0.00909   0.00449  -0.0873  0.3553  0.7931
   6.990   1.2805   0.00910   0.00450  -0.0872  0.3552  0.7935
   7.000   1.2811   0.00911   0.00451  -0.0872  0.3548  0.7937
   7.010   1.2821   0.00912   0.00452  -0.0871  0.3546  0.7940
   7.020   1.2830   0.00913   0.00453  -0.0871  0.3544  0.7943
   7.030   1.2839   0.00913   0.00453  -0.0871  0.3541  0.7947
   7.040   1.2849   0.00914   0.00454  -0.0871  0.3540  0.7947
   7.050   1.2858   0.00915   0.00455  -0.0870  0.3537  0.7951
   7.060   1.2866   0.00915   0.00455  -0.0870  0.3534  0.7956
   7.070   1.2876   0.00916   0.00456  -0.0870  0.3533  0.7957
   7.080   1.2885   0.00917   0.00457  -0.0869  0.3531  0.7959
   7.090   1.2893   0.00918   0.00457  -0.0869  0.3527  0.7963
   7.100   1.2903   0.00918   0.00458  -0.0869  0.3525  0.7965
   7.110   1.2912   0.00919   0.00459  -0.0868  0.3523  0.7969
   7.120   1.2921   0.00920   0.00460  -0.0868  0.3520  0.7971
   7.130   1.2928   0.00921   0.00460  -0.0867  0.3516  0.7973
   7.140   1.2937   0.00921   0.00461  -0.0867  0.3515  0.7975
   7.150   1.2946   0.00922   0.00462  -0.0867  0.3512  0.7978
   7.160   1.2954   0.00923   0.00463  -0.0866  0.3509  0.7979
   7.170   1.2961   0.00925   0.00464  -0.0866  0.3504  0.7983
   7.180   1.2970   0.00925   0.00464  -0.0865  0.3503  0.7984
   7.190   1.2978   0.00926   0.00465  -0.0865  0.3499  0.7987
   7.200   1.2987   0.00927   0.00466  -0.0865  0.3499  0.7989
   7.220   1.3001   0.00929   0.00468  -0.0863  0.3492  0.7994
   7.230   1.3008   0.00930   0.00468  -0.0862  0.3489  0.7996
   7.240   1.3017   0.00930   0.00469  -0.0862  0.3488  0.7999
   7.250   1.3022   0.00931   0.00470  -0.0861  0.3483  0.8000
   7.260   1.3030   0.00932   0.00471  -0.0861  0.3482  0.8003
   7.270   1.3038   0.00933   0.00472  -0.0860  0.3480  0.8005
   7.280   1.3041   0.00934   0.00473  -0.0859  0.3475  0.8007
   7.290   1.3047   0.00935   0.00474  -0.0858  0.3472  0.8009
   7.300   1.3055   0.00936   0.00475  -0.0857  0.3471  0.8011
   7.310   1.3060   0.00937   0.00476  -0.0856  0.3468  0.8014
   7.320   1.3067   0.00938   0.00477  -0.0856  0.3465  0.8014
   7.330   1.3070   0.00939   0.00478  -0.0854  0.3460  0.8018
   7.340   1.3078   0.00940   0.00479  -0.0854  0.3460  0.8018
   7.350   1.3085   0.00941   0.00479  -0.0853  0.3459  0.8021
   7.360   1.3088   0.00942   0.00481  -0.0852  0.3454  0.8023
   7.370   1.3093   0.00943   0.00482  -0.0850  0.3451  0.8026
   7.380   1.3102   0.00944   0.00482  -0.0850  0.3451  0.8027
   7.390   1.3106   0.00945   0.00483  -0.0849  0.3448  0.8030
   7.400   1.3111   0.00946   0.00484  -0.0848  0.3445  0.8031
   7.410   1.3119   0.00947   0.00485  -0.0847  0.3444  0.8034
   7.420   1.3127   0.00947   0.00486  -0.0847  0.3441  0.8035
   7.430   1.3135   0.00948   0.00486  -0.0846  0.3440  0.8038
   7.440   1.3143   0.00948   0.00487  -0.0846  0.3438  0.8039
   7.450   1.3150   0.00949   0.00488  -0.0845  0.3434  0.8042
   7.460   1.3158   0.00950   0.00488  -0.0845  0.3432  0.8042
   7.470   1.3166   0.00950   0.00489  -0.0844  0.3432  0.8044
   7.480   1.3173   0.00951   0.00490  -0.0843  0.3427  0.8047
   7.490   1.3182   0.00952   0.00490  -0.0843  0.3427  0.8048
   7.500   1.3188   0.00952   0.00491  -0.0842  0.3424  0.8050
   7.510   1.3196   0.00953   0.00492  -0.0842  0.3422  0.8051
   7.520   1.3204   0.00954   0.00493  -0.0841  0.3420  0.8054
   7.530   1.3209   0.00955   0.00494  -0.0840  0.3414  0.8056
   7.540   1.3218   0.00955   0.00494  -0.0840  0.3416  0.8057
   7.550   1.3224   0.00957   0.00495  -0.0839  0.3411  0.8059
   7.560   1.3232   0.00957   0.00496  -0.0839  0.3410  0.8061
   7.570   1.3239   0.00958   0.00497  -0.0838  0.3408  0.8062
   7.580   1.3245   0.00959   0.00498  -0.0837  0.3404  0.8064
   7.590   1.3253   0.00960   0.00498  -0.0836  0.3403  0.8065
   7.600   1.3262   0.00960   0.00499  -0.0836  0.3403  0.8068
   7.610   1.3266   0.00962   0.00500  -0.0835  0.3396  0.8067
   7.620   1.3273   0.00963   0.00501  -0.0834  0.3394  0.8070
   7.630   1.3280   0.00964   0.00502  -0.0834  0.3393  0.8073
   7.640   1.3287   0.00965   0.00503  -0.0833  0.3391  0.8074
   7.650   1.3294   0.00965   0.00504  -0.0832  0.3389  0.8076
   7.660   1.3301   0.00966   0.00505  -0.0832  0.3387  0.8076
   7.670   1.3307   0.00968   0.00506  -0.0831  0.3384  0.8078
   7.680   1.3313   0.00969   0.00507  -0.0830  0.3381  0.8080
   7.690   1.3319   0.00970   0.00508  -0.0829  0.3378  0.8082
   7.700   1.3326   0.00971   0.00509  -0.0828  0.3377  0.8083
   7.710   1.3333   0.00972   0.00509  -0.0828  0.3375  0.8084
   7.720   1.3340   0.00973   0.00510  -0.0827  0.3373  0.8086
   7.730   1.3343   0.00975   0.00512  -0.0826  0.3369  0.8087
   7.740   1.3351   0.00976   0.00513  -0.0825  0.3368  0.8089
   7.750   1.3356   0.00977   0.00514  -0.0824  0.3365  0.8090
   7.760   1.3361   0.00978   0.00515  -0.0823  0.3362  0.8092
   7.770   1.3367   0.00980   0.00516  -0.0822  0.3360  0.8092
   7.780   1.3371   0.00981   0.00518  -0.0821  0.3357  0.8095
   7.790   1.3378   0.00982   0.00519  -0.0820  0.3355  0.8096
   7.800   1.3382   0.00984   0.00520  -0.0819  0.3352  0.8098
   7.810   1.3388   0.00985   0.00521  -0.0818  0.3350  0.8099
   7.820   1.3394   0.00986   0.00522  -0.0817  0.3348  0.8100
   7.860   1.3418   0.00991   0.00527  -0.0814  0.3340  0.8108
   7.870   1.3426   0.00991   0.00527  -0.0814  0.3339  0.8107
   7.880   1.3433   0.00992   0.00528  -0.0813  0.3337  0.8109
   7.890   1.3441   0.00993   0.00529  -0.0812  0.3336  0.8112
   7.900   1.3447   0.00994   0.00530  -0.0812  0.3331  0.8112
   7.910   1.3456   0.00994   0.00531  -0.0811  0.3331  0.8114
   7.920   1.3464   0.00995   0.00531  -0.0811  0.3330  0.8115
   7.930   1.3471   0.00996   0.00532  -0.0810  0.3327  0.8117
   7.940   1.3479   0.00996   0.00533  -0.0810  0.3326  0.8118
   7.950   1.3486   0.00997   0.00534  -0.0809  0.3324  0.8120
   7.960   1.3492   0.00998   0.00535  -0.0808  0.3320  0.8122
   7.970   1.3497   0.01000   0.00536  -0.0807  0.3315  0.8123
   7.980   1.3508   0.01000   0.00537  -0.0807  0.3318  0.8123
   7.990   1.3511   0.01001   0.00538  -0.0806  0.3310  0.8126
   8.000   1.3522   0.01001   0.00539  -0.0806  0.3314  0.8127
   8.010   1.3524   0.01003   0.00540  -0.0804  0.3306  0.8128
   8.020   1.3536   0.01003   0.00541  -0.0804  0.3310  0.8130
   8.030   1.3543   0.01004   0.00542  -0.0804  0.3308  0.8131
   8.040   1.3540   0.01007   0.00544  -0.0801  0.3294  0.8134
   8.050   1.3555   0.01006   0.00544  -0.0802  0.3302  0.8135
   8.060   1.3564   0.01007   0.00544  -0.0802  0.3302  0.8136
   8.070   1.3564   0.01009   0.00547  -0.0800  0.3293  0.8138
   8.080   1.3576   0.01009   0.00547  -0.0800  0.3296  0.8139
   8.090   1.3576   0.01012   0.00549  -0.0798  0.3287  0.8140
   8.100   1.3590   0.01011   0.00549  -0.0799  0.3293  0.8141
   8.110   1.3596   0.01012   0.00550  -0.0798  0.3290  0.8144
   8.120   1.3602   0.01014   0.00551  -0.0797  0.3288  0.8145
   8.130   1.3603   0.01016   0.00553  -0.0796  0.3280  0.8146
   8.140   1.3607   0.01018   0.00554  -0.0795  0.3277  0.8149
   8.150   1.3608   0.01020   0.00557  -0.0793  0.3271  0.8150
   8.160   1.3629   0.01018   0.00555  -0.0795  0.3281  0.8151
   8.170   1.3633   0.01019   0.00557  -0.0793  0.3277  0.8153
   8.180   1.3642   0.01020   0.00557  -0.0793  0.3278  0.8154
   8.190   1.3644   0.01022   0.00559  -0.0792  0.3273  0.8156
   8.200   1.3649   0.01024   0.00561  -0.0791  0.3270  0.8157
   8.210   1.3640   0.01028   0.00564  -0.0787  0.3258  0.8159
   8.220   1.3657   0.01027   0.00564  -0.0788  0.3262  0.8161
   8.230   1.3667   0.01027   0.00564  -0.0788  0.3264  0.8162
   8.240   1.3660   0.01032   0.00568  -0.0785  0.3253  0.8164
   8.250   1.3656   0.01035   0.00570  -0.0783  0.3245  0.8166
   8.260   1.3684   0.01031   0.00568  -0.0786  0.3258  0.8167
   8.270   1.3680   0.01035   0.00571  -0.0783  0.3250  0.8169
   8.280   1.3698   0.01033   0.00570  -0.0784  0.3257  0.8170
   8.290   1.3697   0.01036   0.00572  -0.0782  0.3251  0.8172
   8.300   1.3685   0.01041   0.00577  -0.0778  0.3234  0.8174
   8.310   1.3709   0.01038   0.00575  -0.0781  0.3248  0.8175
   8.320   1.3717   0.01039   0.00575  -0.0780  0.3247  0.8176
   8.330   1.3711   0.01043   0.00579  -0.0777  0.3239  0.8178
   8.340   1.3719   0.01044   0.00580  -0.0777  0.3237  0.8180
   8.350   1.3726   0.01045   0.00581  -0.0776  0.3235  0.8181
   8.360   1.3736   0.01045   0.00581  -0.0776  0.3237  0.8183
   8.370   1.3740   0.01047   0.00583  -0.0775  0.3229  0.8184
   8.380   1.3748   0.01047   0.00583  -0.0775  0.3229  0.8186
   8.390   1.3756   0.01048   0.00584  -0.0774  0.3227  0.8187
   8.400   1.3761   0.01050   0.00586  -0.0773  0.3223  0.8189
   8.410   1.3769   0.01050   0.00586  -0.0773  0.3222  0.8190
   8.420   1.3780   0.01050   0.00587  -0.0773  0.3227  0.8191
   8.430   1.3789   0.01051   0.00588  -0.0772  0.3227  0.8193
   8.440   1.3789   0.01054   0.00590  -0.0771  0.3215  0.8195
   8.450   1.3801   0.01053   0.00590  -0.0771  0.3222  0.8196
   8.460   1.3809   0.01054   0.00591  -0.0771  0.3220  0.8198
   8.470   1.3813   0.01056   0.00592  -0.0769  0.3213  0.8199
   8.480   1.3822   0.01056   0.00593  -0.0769  0.3215  0.8201
   8.490   1.3823   0.01059   0.00595  -0.0768  0.3206  0.8202
   8.500   1.3828   0.01061   0.00596  -0.0767  0.3202  0.8204
   8.510   1.3846   0.01059   0.00595  -0.0768  0.3214  0.8205
   8.520   1.3846   0.01062   0.00598  -0.0766  0.3203  0.8206
   8.530   1.3851   0.01063   0.00599  -0.0765  0.3199  0.8209
   8.540   1.3867   0.01062   0.00598  -0.0766  0.3208  0.8209
   8.550   1.3867   0.01065   0.00601  -0.0764  0.3199  0.8211
   8.580   1.3882   0.01069   0.00605  -0.0761  0.3190  0.8216
   8.590   1.3889   0.01070   0.00606  -0.0761  0.3189  0.8217
   8.600   1.3899   0.01070   0.00607  -0.0761  0.3190  0.8219
   8.610   1.3900   0.01072   0.00609  -0.0759  0.3184  0.8220
   8.620   1.3913   0.01072   0.00609  -0.0760  0.3189  0.8222
   8.630   1.3924   0.01072   0.00609  -0.0759  0.3191  0.8225
   8.640   1.3920   0.01075   0.00612  -0.0757  0.3181  0.8226
   8.650   1.3921   0.01078   0.00614  -0.0755  0.3176  0.8227
   8.660   1.3940   0.01076   0.00613  -0.0757  0.3184  0.8228
   8.670   1.3938   0.01079   0.00616  -0.0755  0.3177  0.8230
   8.680   1.3932   0.01083   0.00619  -0.0752  0.3167  0.8233
   8.690   1.3957   0.01080   0.00617  -0.0754  0.3179  0.8233
   8.700   1.3925   0.01090   0.00625  -0.0747  0.3153  0.8238
   8.710   1.3927   0.01092   0.00627  -0.0746  0.3150  0.8239
   8.720   1.3945   0.01090   0.00626  -0.0747  0.3155  0.8239
   8.730   1.3952   0.01091   0.00627  -0.0746  0.3155  0.8242
   8.740   1.3954   0.01094   0.00629  -0.0745  0.3152  0.8245
   8.750   1.3949   0.01097   0.00633  -0.0742  0.3144  0.8246
   8.760   1.3994   0.01089   0.00627  -0.0748  0.3166  0.8245
   8.770   1.3980   0.01095   0.00632  -0.0744  0.3154  0.8249
   8.780   1.3958   0.01103   0.00638  -0.0739  0.3136  0.8251
   8.790   1.3998   0.01096   0.00633  -0.0744  0.3155  0.8253
   8.800   1.3998   0.01099   0.00635  -0.0742  0.3151  0.8255
   8.810   1.3991   0.01103   0.00639  -0.0739  0.3142  0.8256
   8.820   1.3996   0.01105   0.00641  -0.0738  0.3141  0.8257
   8.830   1.4023   0.01101   0.00638  -0.0741  0.3152  0.8259
   8.840   1.4029   0.01102   0.00639  -0.0740  0.3151  0.8260
   8.850   1.4011   0.01109   0.00645  -0.0735  0.3133  0.8264
   8.860   1.4016   0.01111   0.00647  -0.0734  0.3128  0.8266
   8.870   1.4027   0.01111   0.00647  -0.0734  0.3134  0.8267
   8.880   1.4033   0.01112   0.00648  -0.0734  0.3130  0.8269
   8.890   1.4041   0.01113   0.00649  -0.0733  0.3131  0.8270
   8.900   1.4044   0.01115   0.00651  -0.0732  0.3123  0.8272
   8.910   1.4052   0.01115   0.00652  -0.0732  0.3122  0.8275
   8.920   1.4062   0.01116   0.00653  -0.0731  0.3127  0.8275
   8.930   1.4067   0.01117   0.00654  -0.0731  0.3122  0.8278
   8.940   1.4075   0.01118   0.00655  -0.0730  0.3123  0.8280
   8.950   1.4082   0.01119   0.00656  -0.0730  0.3122  0.8280
   8.960   1.4088   0.01120   0.00658  -0.0729  0.3119  0.8284
   8.970   1.4088   0.01123   0.00660  -0.0727  0.3110  0.8285
   8.980   1.4094   0.01124   0.00661  -0.0726  0.3107  0.8287
   8.990   1.4114   0.01122   0.00660  -0.0728  0.3126  0.8287
   9.000   1.4116   0.01124   0.00662  -0.0727  0.3116  0.8290
   9.010   1.4119   0.01126   0.00664  -0.0725  0.3110  0.8292
   9.020   1.4135   0.01125   0.00663  -0.0726  0.3124  0.8293
   9.030   1.4122   0.01131   0.00668  -0.0722  0.3097  0.8295
   9.040   1.4137   0.01130   0.00668  -0.0723  0.3105  0.8296
   9.050   1.4140   0.01132   0.00670  -0.0722  0.3100  0.8299
   9.060   1.4146   0.01134   0.00671  -0.0721  0.3099  0.8300
   9.070   1.4151   0.01135   0.00673  -0.0720  0.3097  0.8302
   9.080   1.4154   0.01137   0.00675  -0.0719  0.3092  0.8304
   9.090   1.4169   0.01136   0.00674  -0.0720  0.3099  0.8305
   9.100   1.4177   0.01137   0.00675  -0.0720  0.3100  0.8307
   9.110   1.4180   0.01139   0.00677  -0.0718  0.3096  0.8308
   9.120   1.4183   0.01141   0.00679  -0.0717  0.3092  0.8310
   9.130   1.4190   0.01142   0.00680  -0.0717  0.3091  0.8312
   9.140   1.4193   0.01144   0.00682  -0.0715  0.3088  0.8314
   9.150   1.4200   0.01146   0.00683  -0.0715  0.3087  0.8315
   9.160   1.4201   0.01148   0.00686  -0.0713  0.3082  0.8317
   9.170   1.4204   0.01150   0.00688  -0.0712  0.3079  0.8318
