  
       XFOIL         Version 6.94
  
 Calculated polar for: 1080                                            
  
 1 1 Reynolds number fixed          Mach number fixed         
  
 xtrf =   1.000 (top)        1.000 (bottom)  
 Mach =   0.000     Re =     2.000 e 6     Ncrit =   9.000
  
  alpha     CL        CD       CDp       CM    Top_Xtr Bot_Xtr
 ------- -------- --------- --------- -------- ------- -------
   6.000   1.1427   0.00901   0.00396  -0.0664  0.3163  0.7442
   6.010   1.1437   0.00902   0.00397  -0.0664  0.3161  0.7442
   6.020   1.1447   0.00903   0.00398  -0.0664  0.3160  0.7443
   6.030   1.1457   0.00903   0.00398  -0.0664  0.3158  0.7444
   6.040   1.1467   0.00904   0.00399  -0.0664  0.3157  0.7445
   6.050   1.1477   0.00905   0.00400  -0.0664  0.3155  0.7445
   6.060   1.1486   0.00906   0.00400  -0.0663  0.3153  0.7446
   6.070   1.1496   0.00907   0.00401  -0.0663  0.3151  0.7447
   6.080   1.1506   0.00907   0.00402  -0.0663  0.3150  0.7447
   6.090   1.1516   0.00908   0.00402  -0.0663  0.3148  0.7448
   6.100   1.1526   0.00909   0.00403  -0.0663  0.3146  0.7449
   6.110   1.1536   0.00910   0.00404  -0.0663  0.3145  0.7450
   6.120   1.1546   0.00911   0.00404  -0.0663  0.3143  0.7450
   6.130   1.1556   0.00911   0.00405  -0.0663  0.3142  0.7451
   6.140   1.1567   0.00911   0.00405  -0.0663  0.3141  0.7452
   6.150   1.1578   0.00912   0.00406  -0.0663  0.3140  0.7452
   6.160   1.1589   0.00912   0.00406  -0.0663  0.3139  0.7453
   6.170   1.1599   0.00913   0.00407  -0.0663  0.3138  0.7454
   6.180   1.1610   0.00913   0.00407  -0.0663  0.3137  0.7454
   6.190   1.1621   0.00914   0.00408  -0.0663  0.3136  0.7455
   6.200   1.1631   0.00914   0.00408  -0.0663  0.3135  0.7456
   6.210   1.1642   0.00914   0.00409  -0.0663  0.3134  0.7456
   6.220   1.1653   0.00915   0.00409  -0.0663  0.3132  0.7457
   6.230   1.1663   0.00915   0.00409  -0.0663  0.3131  0.7458
   6.240   1.1674   0.00916   0.00410  -0.0663  0.3130  0.7458
   6.250   1.1684   0.00916   0.00410  -0.0662  0.3129  0.7459
   6.260   1.1695   0.00917   0.00411  -0.0663  0.3128  0.7460
   6.270   1.1706   0.00917   0.00411  -0.0662  0.3127  0.7460
   6.280   1.1716   0.00918   0.00412  -0.0662  0.3125  0.7461
   6.290   1.1727   0.00918   0.00412  -0.0662  0.3124  0.7462
   6.300   1.1737   0.00919   0.00413  -0.0662  0.3122  0.7462
   6.310   1.1748   0.00919   0.00413  -0.0662  0.3121  0.7463
   6.320   1.1758   0.00920   0.00414  -0.0662  0.3120  0.7464
   6.330   1.1768   0.00920   0.00414  -0.0662  0.3119  0.7464
