  
       XFOIL         Version 6.94
  
 Calculated polar for: 1080                                            
  
 1 1 Reynolds number fixed          Mach number fixed         
  
 xtrf =   1.000 (top)        1.000 (bottom)  
 Mach =   0.000     Re =     2.000 e 6     Ncrit =   9.000
  
  alpha     CL        CD       CDp       CM    Top_Xtr Bot_Xtr
 ------- -------- --------- --------- -------- ------- -------
   6.000   1.2195   0.00692   0.00292  -0.1208  0.5765  0.6403
   6.010   1.2203   0.00692   0.00292  -0.1207  0.5763  0.6408
   6.020   1.2212   0.00693   0.00292  -0.1207  0.5763  0.6411
   6.030   1.2222   0.00693   0.00293  -0.1207  0.5763  0.6414
   6.040   1.2230   0.00693   0.00293  -0.1207  0.5761  0.6418
   6.050   1.2238   0.00693   0.00293  -0.1206  0.5760  0.6421
   6.060   1.2245   0.00694   0.00294  -0.1205  0.5758  0.6427
   6.070   1.2254   0.00694   0.00294  -0.1205  0.5757  0.6432
   6.080   1.2261   0.00694   0.00295  -0.1204  0.5755  0.6435
   6.090   1.2270   0.00695   0.00295  -0.1204  0.5755  0.6440
   6.100   1.2277   0.00695   0.00295  -0.1204  0.5753  0.6445
   6.110   1.2285   0.00695   0.00296  -0.1203  0.5752  0.6449
   6.120   1.2294   0.00696   0.00296  -0.1203  0.5751  0.6454
   6.130   1.2299   0.00696   0.00297  -0.1202  0.5749  0.6458
   6.170   1.2330   0.00697   0.00299  -0.1200  0.5744  0.6484
   6.180   1.2337   0.00698   0.00299  -0.1199  0.5743  0.6489
   6.190   1.2346   0.00698   0.00299  -0.1199  0.5742  0.6498
   6.200   1.2356   0.00698   0.00300  -0.1199  0.5741  0.6505
   6.210   1.2366   0.00698   0.00300  -0.1199  0.5739  0.6511
   6.220   1.2376   0.00698   0.00300  -0.1198  0.5738  0.6519
   6.230   1.2385   0.00697   0.00301  -0.1198  0.5737  0.6529
   6.240   1.2395   0.00697   0.00301  -0.1198  0.5736  0.6537
   6.250   1.2406   0.00697   0.00302  -0.1198  0.5736  0.6546
   6.260   1.2415   0.00697   0.00302  -0.1198  0.5733  0.6556
   6.270   1.2425   0.00697   0.00302  -0.1198  0.5733  0.6566
   6.290   1.2445   0.00697   0.00303  -0.1198  0.5731  0.6587
   6.300   1.2454   0.00696   0.00303  -0.1198  0.5729  0.6602
   6.310   1.2464   0.00696   0.00304  -0.1198  0.5728  0.6619
   6.320   1.2474   0.00696   0.00304  -0.1198  0.5727  0.6633
   6.330   1.2483   0.00696   0.00305  -0.1197  0.5725  0.6652
   6.340   1.2492   0.00696   0.00305  -0.1197  0.5723  0.6666
   6.350   1.2502   0.00695   0.00305  -0.1197  0.5723  0.6690
   6.360   1.2511   0.00695   0.00306  -0.1197  0.5721  0.6712
   6.370   1.2521   0.00694   0.00306  -0.1197  0.5720  0.6745
   6.380   1.2530   0.00694   0.00307  -0.1197  0.5720  0.6771
   6.390   1.2539   0.00692   0.00307  -0.1196  0.5716  0.6819
   6.400   1.2548   0.00691   0.00308  -0.1196  0.5715  0.6875
   6.410   1.2557   0.00690   0.00309  -0.1196  0.5715  0.6958
   6.420   1.2565   0.00688   0.00309  -0.1196  0.5713  0.7047
   6.430   1.2573   0.00685   0.00311  -0.1195  0.5711  0.7188
   6.440   1.2580   0.00684   0.00312  -0.1195  0.5710  0.7320
   6.450   1.2587   0.00681   0.00314  -0.1194  0.5708  0.7492
   6.460   1.2595   0.00681   0.00316  -0.1194  0.5707  0.7560
   6.470   1.2604   0.00681   0.00316  -0.1193  0.5707  0.7604
   6.480   1.2612   0.00681   0.00317  -0.1193  0.5704  0.7646
   6.490   1.2621   0.00681   0.00318  -0.1193  0.5704  0.7667
   6.500   1.2630   0.00681   0.00319  -0.1192  0.5703  0.7688
   6.510   1.2639   0.00681   0.00319  -0.1192  0.5701  0.7707
   6.520   1.2646   0.00681   0.00320  -0.1191  0.5699  0.7727
   6.530   1.2655   0.00682   0.00320  -0.1191  0.5697  0.7737
   6.540   1.2665   0.00682   0.00321  -0.1191  0.5697  0.7748
   6.550   1.2672   0.00682   0.00322  -0.1190  0.5695  0.7759
   6.560   1.2680   0.00683   0.00322  -0.1190  0.5693  0.7770
   6.570   1.2688   0.00683   0.00323  -0.1189  0.5691  0.7782
   6.580   1.2696   0.00683   0.00323  -0.1189  0.5689  0.7792
   6.590   1.2706   0.00684   0.00324  -0.1189  0.5689  0.7802
   6.600   1.2714   0.00684   0.00325  -0.1188  0.5687  0.7813
   6.610   1.2721   0.00685   0.00325  -0.1188  0.5685  0.7822
   6.620   1.2731   0.00685   0.00326  -0.1187  0.5684  0.7831
   6.630   1.2738   0.00685   0.00326  -0.1187  0.5682  0.7837
   6.640   1.2749   0.00686   0.00327  -0.1187  0.5683  0.7845
   6.650   1.2755   0.00686   0.00327  -0.1186  0.5680  0.7852
   6.660   1.2764   0.00687   0.00328  -0.1186  0.5679  0.7858
   6.670   1.2771   0.00687   0.00328  -0.1185  0.5677  0.7864
   6.680   1.2778   0.00688   0.00329  -0.1184  0.5674  0.7870
   6.690   1.2785   0.00688   0.00330  -0.1184  0.5673  0.7878
   6.700   1.2795   0.00688   0.00330  -0.1184  0.5673  0.7886
   6.710   1.2801   0.00689   0.00331  -0.1183  0.5670  0.7891
   6.720   1.2810   0.00689   0.00332  -0.1182  0.5670  0.7898
   6.730   1.2813   0.00690   0.00332  -0.1181  0.5665  0.7906
   6.740   1.2824   0.00691   0.00333  -0.1181  0.5665  0.7911
   6.750   1.2831   0.00691   0.00333  -0.1180  0.5664  0.7918
   6.760   1.2842   0.00691   0.00334  -0.1181  0.5665  0.7924
   6.770   1.2848   0.00692   0.00335  -0.1180  0.5662  0.7930
   6.780   1.2856   0.00693   0.00335  -0.1179  0.5661  0.7936
   6.790   1.2860   0.00694   0.00336  -0.1178  0.5658  0.7941
   6.800   1.2871   0.00694   0.00336  -0.1178  0.5658  0.7945
   6.810   1.2875   0.00695   0.00337  -0.1177  0.5655  0.7951
   6.820   1.2885   0.00695   0.00338  -0.1177  0.5655  0.7956
   6.830   1.2889   0.00696   0.00338  -0.1175  0.5652  0.7960
   6.840   1.2893   0.00697   0.00339  -0.1174  0.5649  0.7964
   6.850   1.2899   0.00698   0.00340  -0.1173  0.5647  0.7969
   6.860   1.2909   0.00698   0.00341  -0.1173  0.5647  0.7972
   6.870   1.2915   0.00699   0.00341  -0.1172  0.5645  0.7977
   6.880   1.2923   0.00699   0.00342  -0.1172  0.5645  0.7982
   6.890   1.2928   0.00700   0.00343  -0.1171  0.5642  0.7987
   6.920   1.2955   0.00701   0.00345  -0.1170  0.5640  0.7999
   6.930   1.2966   0.00701   0.00345  -0.1170  0.5637  0.8003
   6.940   1.2976   0.00702   0.00345  -0.1170  0.5634  0.8006
   6.950   1.2985   0.00702   0.00346  -0.1170  0.5634  0.8012
   6.960   1.2995   0.00702   0.00347  -0.1170  0.5634  0.8016
   6.970   1.3005   0.00703   0.00347  -0.1169  0.5633  0.8020
   6.980   1.3015   0.00703   0.00347  -0.1169  0.5631  0.8022
   6.990   1.3024   0.00703   0.00348  -0.1169  0.5629  0.8028
   7.000   1.3034   0.00704   0.00348  -0.1169  0.5628  0.8031
   7.010   1.3043   0.00704   0.00349  -0.1169  0.5625  0.8034
   7.020   1.3053   0.00704   0.00349  -0.1169  0.5625  0.8039
   7.030   1.3063   0.00705   0.00350  -0.1169  0.5624  0.8042
   7.040   1.3072   0.00705   0.00350  -0.1168  0.5621  0.8045
   7.050   1.3081   0.00705   0.00351  -0.1168  0.5620  0.8048
   7.060   1.3090   0.00706   0.00351  -0.1168  0.5616  0.8051
   7.070   1.3100   0.00706   0.00352  -0.1168  0.5616  0.8054
   7.080   1.3109   0.00707   0.00352  -0.1168  0.5615  0.8058
   7.090   1.3117   0.00707   0.00353  -0.1167  0.5612  0.8061
   7.100   1.3127   0.00707   0.00353  -0.1167  0.5613  0.8064
   7.110   1.3135   0.00708   0.00354  -0.1167  0.5609  0.8066
   7.120   1.3145   0.00708   0.00354  -0.1167  0.5610  0.8069
   7.130   1.3152   0.00709   0.00355  -0.1166  0.5607  0.8072
   7.140   1.3158   0.00709   0.00356  -0.1165  0.5602  0.8075
   7.150   1.3170   0.00709   0.00356  -0.1165  0.5604  0.8077
   7.160   1.3177   0.00710   0.00357  -0.1165  0.5601  0.8080
   7.170   1.3184   0.00710   0.00358  -0.1164  0.5598  0.8083
   7.180   1.3193   0.00711   0.00358  -0.1164  0.5597  0.8086
   7.190   1.3201   0.00711   0.00359  -0.1163  0.5596  0.8088
   7.200   1.3208   0.00712   0.00360  -0.1163  0.5592  0.8092
   7.210   1.3214   0.00713   0.00360  -0.1162  0.5590  0.8095
   7.220   1.3224   0.00713   0.00361  -0.1162  0.5589  0.8097
   7.230   1.3233   0.00713   0.00361  -0.1161  0.5589  0.8101
   7.240   1.3240   0.00714   0.00362  -0.1161  0.5587  0.8103
   7.250   1.3246   0.00715   0.00363  -0.1160  0.5583  0.8106
   7.260   1.3253   0.00715   0.00363  -0.1159  0.5582  0.8110
   7.270   1.3262   0.00716   0.00364  -0.1159  0.5581  0.8112
   7.280   1.3271   0.00716   0.00365  -0.1159  0.5581  0.8115
   7.290   1.3276   0.00717   0.00365  -0.1158  0.5578  0.8118
   7.300   1.3282   0.00718   0.00366  -0.1157  0.5574  0.8120
   7.310   1.3287   0.00719   0.00367  -0.1156  0.5572  0.8123
   7.320   1.3296   0.00719   0.00368  -0.1155  0.5571  0.8126
   7.330   1.3302   0.00720   0.00368  -0.1155  0.5569  0.8129
   7.340   1.3311   0.00720   0.00369  -0.1154  0.5569  0.8132
   7.350   1.3310   0.00722   0.00370  -0.1152  0.5562  0.8134
   7.360   1.3324   0.00722   0.00370  -0.1153  0.5565  0.8136
   7.370   1.3330   0.00723   0.00371  -0.1152  0.5563  0.8139
   7.380   1.3335   0.00724   0.00372  -0.1151  0.5560  0.8143
   7.390   1.3345   0.00724   0.00372  -0.1151  0.5560  0.8145
   7.400   1.3343   0.00726   0.00374  -0.1149  0.5555  0.8148
   7.410   1.3356   0.00726   0.00374  -0.1149  0.5556  0.8150
   7.420   1.3359   0.00727   0.00375  -0.1148  0.5553  0.8152
   7.430   1.3366   0.00728   0.00376  -0.1147  0.5551  0.8155
   7.440   1.3369   0.00729   0.00377  -0.1146  0.5549  0.8157
   7.450   1.3376   0.00730   0.00377  -0.1145  0.5547  0.8160
   7.460   1.3379   0.00731   0.00378  -0.1143  0.5544  0.8161
   7.470   1.3386   0.00732   0.00379  -0.1143  0.5543  0.8163
   7.480   1.3392   0.00733   0.00380  -0.1142  0.5542  0.8166
   7.490   1.3401   0.00733   0.00381  -0.1142  0.5540  0.8168
   7.500   1.3411   0.00734   0.00381  -0.1142  0.5539  0.8170
   7.510   1.3420   0.00734   0.00382  -0.1141  0.5537  0.8172
   7.520   1.3429   0.00734   0.00382  -0.1141  0.5535  0.8174
   7.530   1.3438   0.00735   0.00383  -0.1141  0.5533  0.8175
   7.540   1.3447   0.00735   0.00383  -0.1141  0.5531  0.8177
   7.550   1.3456   0.00735   0.00384  -0.1140  0.5528  0.8179
   7.560   1.3465   0.00736   0.00385  -0.1140  0.5528  0.8182
   7.570   1.3473   0.00736   0.00385  -0.1140  0.5524  0.8183
   7.580   1.3482   0.00737   0.00386  -0.1140  0.5524  0.8185
   7.590   1.3490   0.00737   0.00387  -0.1139  0.5521  0.8188
   7.600   1.3499   0.00737   0.00387  -0.1139  0.5518  0.8189
   7.610   1.3508   0.00738   0.00388  -0.1138  0.5518  0.8192
   7.620   1.3515   0.00739   0.00389  -0.1138  0.5513  0.8193
   7.630   1.3523   0.00739   0.00389  -0.1138  0.5512  0.8195
   7.640   1.3533   0.00739   0.00390  -0.1137  0.5512  0.8197
   7.650   1.3539   0.00740   0.00391  -0.1137  0.5507  0.8199
   7.660   1.3548   0.00741   0.00391  -0.1136  0.5506  0.8201
   7.670   1.3554   0.00741   0.00392  -0.1135  0.5502  0.8203
   7.680   1.3560   0.00742   0.00393  -0.1135  0.5498  0.8205
   7.690   1.3568   0.00743   0.00394  -0.1134  0.5496  0.8207
   7.700   1.3579   0.00743   0.00394  -0.1134  0.5498  0.8209
   7.710   1.3580   0.00744   0.00395  -0.1132  0.5489  0.8211
   7.720   1.3592   0.00744   0.00396  -0.1133  0.5493  0.8213
   7.730   1.3596   0.00745   0.00397  -0.1132  0.5487  0.8215
   7.740   1.3604   0.00746   0.00397  -0.1131  0.5486  0.8217
   7.750   1.3609   0.00747   0.00398  -0.1130  0.5482  0.8220
   7.760   1.3617   0.00748   0.00399  -0.1130  0.5482  0.8222
   7.770   1.3619   0.00749   0.00400  -0.1128  0.5476  0.8224
   7.780   1.3626   0.00750   0.00401  -0.1128  0.5475  0.8226
   7.790   1.3634   0.00750   0.00402  -0.1127  0.5474  0.8228
   7.800   1.3640   0.00751   0.00403  -0.1126  0.5472  0.8230
   7.810   1.3646   0.00752   0.00403  -0.1125  0.5470  0.8232
   7.820   1.3644   0.00754   0.00405  -0.1123  0.5463  0.8235
   7.830   1.3654   0.00754   0.00406  -0.1123  0.5463  0.8237
   7.840   1.3659   0.00755   0.00407  -0.1122  0.5461  0.8239
   7.850   1.3662   0.00757   0.00408  -0.1121  0.5458  0.8240
   7.860   1.3663   0.00758   0.00409  -0.1119  0.5455  0.8243
   7.870   1.3672   0.00759   0.00410  -0.1119  0.5454  0.8245
   7.880   1.3680   0.00760   0.00410  -0.1118  0.5453  0.8247
   7.890   1.3675   0.00762   0.00412  -0.1115  0.5447  0.8249
   7.900   1.3682   0.00763   0.00413  -0.1115  0.5446  0.8251
   7.910   1.3685   0.00764   0.00414  -0.1113  0.5444  0.8253
   7.920   1.3687   0.00766   0.00416  -0.1112  0.5440  0.8255
   7.930   1.3697   0.00766   0.00416  -0.1111  0.5439  0.8257
   7.940   1.3705   0.00767   0.00417  -0.1111  0.5436  0.8258
   7.950   1.3714   0.00767   0.00418  -0.1111  0.5433  0.8260
   7.960   1.3722   0.00768   0.00418  -0.1111  0.5433  0.8262
   7.970   1.3730   0.00768   0.00419  -0.1110  0.5430  0.8263
   7.980   1.3738   0.00769   0.00420  -0.1110  0.5426  0.8265
   7.990   1.3748   0.00769   0.00420  -0.1110  0.5428  0.8267
   8.000   1.3754   0.00770   0.00421  -0.1109  0.5421  0.8268
   8.010   1.3764   0.00771   0.00422  -0.1109  0.5422  0.8270
   8.020   1.3770   0.00772   0.00423  -0.1108  0.5417  0.8271
   8.030   1.3778   0.00772   0.00423  -0.1108  0.5415  0.8273
   8.040   1.3786   0.00773   0.00424  -0.1107  0.5413  0.8274
   8.060   1.3795   0.00775   0.00426  -0.1105  0.5402  0.8277
   8.070   1.3805   0.00776   0.00427  -0.1105  0.5403  0.8278
   8.080   1.3807   0.00777   0.00428  -0.1103  0.5396  0.8280
   8.090   1.3814   0.00778   0.00429  -0.1103  0.5394  0.8282
   8.100   1.3818   0.00779   0.00430  -0.1102  0.5390  0.8283
   8.110   1.3818   0.00781   0.00432  -0.1100  0.5383  0.8285
   8.120   1.3835   0.00780   0.00432  -0.1101  0.5389  0.8286
   8.130   1.3835   0.00782   0.00433  -0.1099  0.5382  0.8288
   8.140   1.3831   0.00784   0.00435  -0.1096  0.5373  0.8289
   8.150   1.3846   0.00783   0.00435  -0.1097  0.5377  0.8291
   8.160   1.3849   0.00785   0.00437  -0.1096  0.5374  0.8292
   8.170   1.3856   0.00786   0.00438  -0.1095  0.5373  0.8294
   8.180   1.3857   0.00787   0.00439  -0.1093  0.5368  0.8295
   8.190   1.3858   0.00789   0.00441  -0.1092  0.5364  0.8297
   8.200   1.3865   0.00790   0.00442  -0.1091  0.5363  0.8298
   8.210   1.3868   0.00791   0.00443  -0.1090  0.5360  0.8300
   8.220   1.3873   0.00792   0.00444  -0.1089  0.5358  0.8301
   8.230   1.3869   0.00795   0.00446  -0.1086  0.5352  0.8303
   8.240   1.3873   0.00796   0.00448  -0.1085  0.5350  0.8305
   8.250   1.3876   0.00797   0.00449  -0.1084  0.5348  0.8306
   8.260   1.3870   0.00800   0.00452  -0.1081  0.5341  0.8308
   8.270   1.3880   0.00801   0.00452  -0.1081  0.5342  0.8310
   8.280   1.3880   0.00803   0.00454  -0.1078  0.5331  0.8311
   8.290   1.3888   0.00803   0.00455  -0.1078  0.5330  0.8313
   8.300   1.3897   0.00804   0.00455  -0.1078  0.5331  0.8314
   8.310   1.3904   0.00804   0.00456  -0.1077  0.5328  0.8316
   8.320   1.3903   0.00807   0.00458  -0.1075  0.5315  0.8318
   8.330   1.3909   0.00808   0.00459  -0.1075  0.5312  0.8319
   8.340   1.3921   0.00807   0.00460  -0.1075  0.5317  0.8320
   8.350   1.3923   0.00809   0.00461  -0.1073  0.5309  0.8322
   8.360   1.3933   0.00810   0.00462  -0.1073  0.5310  0.8323
   8.370   1.3936   0.00811   0.00463  -0.1072  0.5305  0.8325
   8.380   1.3941   0.00812   0.00465  -0.1071  0.5301  0.8326
   8.390   1.3941   0.00814   0.00466  -0.1069  0.5294  0.8328
   8.400   1.3955   0.00814   0.00466  -0.1070  0.5298  0.8330
   8.410   1.3952   0.00816   0.00469  -0.1068  0.5289  0.8331
   8.420   1.3950   0.00819   0.00471  -0.1065  0.5281  0.8333
   8.430   1.3954   0.00820   0.00472  -0.1064  0.5278  0.8335
   8.440   1.3963   0.00821   0.00473  -0.1064  0.5278  0.8336
   8.450   1.3967   0.00822   0.00474  -0.1063  0.5275  0.8338
   8.460   1.3946   0.00828   0.00479  -0.1057  0.5259  0.8340
   8.470   1.3963   0.00827   0.00479  -0.1058  0.5263  0.8341
   8.480   1.3965   0.00829   0.00481  -0.1057  0.5260  0.8343
   8.490   1.3970   0.00830   0.00482  -0.1056  0.5258  0.8344
   8.500   1.3955   0.00835   0.00486  -0.1051  0.5248  0.8347
   8.510   1.3973   0.00834   0.00486  -0.1053  0.5252  0.8347
   8.520   1.3964   0.00838   0.00489  -0.1049  0.5245  0.8349
   8.530   1.3960   0.00841   0.00492  -0.1047  0.5241  0.8351
   8.540   1.3964   0.00842   0.00493  -0.1046  0.5237  0.8352
   8.550   1.3965   0.00844   0.00495  -0.1044  0.5228  0.8354
   8.560   1.3969   0.00846   0.00496  -0.1043  0.5224  0.8355
   8.570   1.3976   0.00847   0.00498  -0.1042  0.5222  0.8357
   8.580   1.3977   0.00849   0.00499  -0.1041  0.5215  0.8358
   8.590   1.3988   0.00849   0.00500  -0.1041  0.5217  0.8360
   8.600   1.3986   0.00852   0.00502  -0.1039  0.5207  0.8361
   8.610   1.3989   0.00853   0.00504  -0.1037  0.5203  0.8363
   8.620   1.3993   0.00855   0.00506  -0.1036  0.5199  0.8364
   8.630   1.3999   0.00856   0.00507  -0.1035  0.5197  0.8366
   8.640   1.3999   0.00858   0.00509  -0.1034  0.5191  0.8367
   8.650   1.4003   0.00860   0.00511  -0.1032  0.5188  0.8369
   8.660   1.4002   0.00862   0.00513  -0.1031  0.5182  0.8370
   8.670   1.4006   0.00864   0.00515  -0.1029  0.5179  0.8371
   8.680   1.4003   0.00867   0.00517  -0.1027  0.5173  0.8373
   8.690   1.3980   0.00874   0.00524  -0.1021  0.5157  0.8375
   8.700   1.3983   0.00876   0.00525  -0.1020  0.5155  0.8376
   8.710   1.3991   0.00877   0.00526  -0.1020  0.5155  0.8377
   8.720   1.3992   0.00879   0.00529  -0.1018  0.5152  0.8379
   8.750   1.3976   0.00890   0.00539  -0.1010  0.5135  0.8383
   8.760   1.3983   0.00891   0.00540  -0.1009  0.5136  0.8385
   8.770   1.3983   0.00893   0.00542  -0.1008  0.5128  0.8386
   8.780   1.3987   0.00895   0.00544  -0.1007  0.5125  0.8387
   8.790   1.3984   0.00898   0.00547  -0.1004  0.5116  0.8389
   8.800   1.3980   0.00901   0.00550  -0.1002  0.5107  0.8390
   8.810   1.3978   0.00904   0.00553  -0.1000  0.5100  0.8392
   8.820   1.3980   0.00906   0.00555  -0.0998  0.5095  0.8394
   8.830   1.3990   0.00907   0.00556  -0.0998  0.5097  0.8395
   8.840   1.3983   0.00911   0.00560  -0.0995  0.5087  0.8396
   8.850   1.3968   0.00917   0.00566  -0.0991  0.5074  0.8398
   8.860   1.3963   0.00921   0.00569  -0.0988  0.5068  0.8400
   8.870   1.3976   0.00920   0.00569  -0.0989  0.5071  0.8401
   8.880   1.3972   0.00924   0.00573  -0.0987  0.5066  0.8403
   8.890   1.3961   0.00929   0.00578  -0.0983  0.5057  0.8405
   8.900   1.3954   0.00934   0.00582  -0.0980  0.5051  0.8406
   8.910   1.3954   0.00936   0.00585  -0.0978  0.5049  0.8407
   8.920   1.3923   0.00947   0.00595  -0.0971  0.5033  0.8410
   8.930   1.3941   0.00945   0.00594  -0.0973  0.5039  0.8411
   8.940   1.3915   0.00955   0.00602  -0.0967  0.5018  0.8413
   8.950   1.3926   0.00955   0.00603  -0.0967  0.5019  0.8415
   8.960   1.3930   0.00957   0.00605  -0.0966  0.5017  0.8416
   8.970   1.3943   0.00956   0.00605  -0.0966  0.5022  0.8417
   8.980   1.3892   0.00973   0.00620  -0.0956  0.4984  0.8420
   8.990   1.3929   0.00966   0.00614  -0.0961  0.5002  0.8420
   9.000   1.3899   0.00977   0.00624  -0.0954  0.4980  0.8424
   9.010   1.3891   0.00982   0.00629  -0.0951  0.4973  0.8426
   9.020   1.3889   0.00986   0.00633  -0.0949  0.4968  0.8426
   9.030   1.3904   0.00985   0.00633  -0.0950  0.4972  0.8428
   9.040   1.3883   0.00994   0.00641  -0.0945  0.4959  0.8430
   9.050   1.3879   0.00998   0.00645  -0.0943  0.4955  0.8432
   9.060   1.3861   0.01007   0.00654  -0.0938  0.4945  0.8433
   9.070   1.3829   0.01020   0.00665  -0.0932  0.4931  0.8436
   9.080   1.3860   0.01014   0.00661  -0.0935  0.4941  0.8437
   9.090   1.3838   0.01024   0.00670  -0.0930  0.4928  0.8439
   9.100   1.3834   0.01029   0.00675  -0.0928  0.4920  0.8440
   9.110   1.3834   0.01032   0.00678  -0.0926  0.4916  0.8443
   9.120   1.3814   0.01042   0.00688  -0.0922  0.4899  0.8444
   9.130   1.3794   0.01052   0.00697  -0.0917  0.4884  0.8446
   9.140   1.3811   0.01050   0.00696  -0.0918  0.4890  0.8449
   9.150   1.3781   0.01064   0.00709  -0.0912  0.4871  0.8450
   9.160   1.3782   0.01067   0.00712  -0.0911  0.4869  0.8452
   9.170   1.3777   0.01073   0.00718  -0.0908  0.4863  0.8453
   9.180   1.3723   0.01095   0.00739  -0.0899  0.4840  0.8458
   9.190   1.3759   0.01086   0.00731  -0.0903  0.4851  0.8458
   9.200   1.3757   0.01091   0.00736  -0.0901  0.4847  0.8460
   9.210   1.3739   0.01102   0.00746  -0.0897  0.4839  0.8461
   9.220   1.3717   0.01114   0.00757  -0.0892  0.4826  0.8464
   9.230   1.3690   0.01127   0.00770  -0.0887  0.4807  0.8467
   9.240   1.3708   0.01125   0.00769  -0.0888  0.4813  0.8467
   9.250   1.3711   0.01128   0.00772  -0.0887  0.4811  0.8469
   9.260   1.3648   0.01156   0.00798  -0.0876  0.4775  0.8473
   9.270   1.3629   0.01168   0.00810  -0.0872  0.4763  0.8475
   9.280   1.3604   0.01183   0.00824  -0.0867  0.4750  0.8476
   9.290   1.3640   0.01173   0.00815  -0.0871  0.4761  0.8476
   9.300   1.3603   0.01192   0.00834  -0.0864  0.4744  0.8480
   9.310   1.3604   0.01196   0.00838  -0.0863  0.4742  0.8482
   9.320   1.3597   0.01204   0.00845  -0.0861  0.4737  0.8483
   9.330   1.3557   0.01225   0.00865  -0.0854  0.4716  0.8486
