  
       XFOIL         Version 6.94
  
 Calculated polar for: 1080                                            
  
 1 1 Reynolds number fixed          Mach number fixed         
  
 xtrf =   1.000 (top)        1.000 (bottom)  
 Mach =   0.000     Re =     2.000 e 6     Ncrit =   9.000
  
  alpha     CL        CD       CDp       CM    Top_Xtr Bot_Xtr
 ------- -------- --------- --------- -------- ------- -------
   6.000   1.5120   0.00870   0.00510  -0.1969  0.6423  0.8376
   6.010   1.5192   0.00870   0.00509  -0.1983  0.6427  0.8375
   6.020   1.5132   0.00870   0.00511  -0.1968  0.6423  0.8376
   6.030   1.5236   0.00871   0.00510  -0.1988  0.6428  0.8375
   6.040   1.5233   0.00871   0.00510  -0.1985  0.6427  0.8375
   6.050   1.5131   0.00871   0.00513  -0.1961  0.6420  0.8376
   6.060   1.5079   0.00871   0.00514  -0.1948  0.6415  0.8377
   6.070   1.5131   0.00872   0.00514  -0.1957  0.6419  0.8376
   6.080   1.5104   0.00872   0.00515  -0.1949  0.6416  0.8377
   6.090   1.5090   0.00872   0.00516  -0.1944  0.6413  0.8377
   6.100   1.5143   0.00873   0.00516  -0.1954  0.6417  0.8377
   6.110   1.5146   0.00873   0.00516  -0.1952  0.6417  0.8377
   6.120   1.5184   0.00874   0.00516  -0.1958  0.6419  0.8376
   6.130   1.5126   0.00874   0.00517  -0.1944  0.6412  0.8377
   6.140   1.5130   0.00874   0.00518  -0.1943  0.6412  0.8377
   6.150   1.5126   0.00874   0.00519  -0.1940  0.6410  0.8377
   6.160   1.5155   0.00875   0.00519  -0.1944  0.6412  0.8377
   6.170   1.5116   0.00875   0.00519  -0.1933  0.6406  0.8377
   6.180   1.5082   0.00874   0.00519  -0.1924  0.6400  0.8378
   6.190   1.5216   0.00876   0.00520  -0.1951  0.6415  0.8376
   6.200   1.5137   0.00876   0.00521  -0.1932  0.6405  0.8377
   6.210   1.5246   0.00877   0.00521  -0.1953  0.6416  0.8376
   6.220   1.5186   0.00877   0.00522  -0.1938  0.6409  0.8377
   6.230   1.5117   0.00875   0.00521  -0.1921  0.6397  0.8378
   6.240   1.5140   0.00876   0.00522  -0.1924  0.6400  0.8378
   6.250   1.5159   0.00877   0.00523  -0.1926  0.6401  0.8378
   6.260   1.5233   0.00879   0.00524  -0.1940  0.6409  0.8377
   6.270   1.5266   0.00879   0.00524  -0.1945  0.6412  0.8377
   6.280   1.5206   0.00879   0.00525  -0.1930  0.6403  0.8377
   6.290   1.5251   0.00880   0.00526  -0.1938  0.6408  0.8377
   6.300   1.5321   0.00881   0.00526  -0.1951  0.6414  0.8376
   6.310   1.5191   0.00878   0.00525  -0.1921  0.6396  0.8378
   6.320   1.5181   0.00878   0.00524  -0.1917  0.6392  0.8378
   6.330   1.5223   0.00880   0.00526  -0.1923  0.6398  0.8378
   6.340   1.5274   0.00881   0.00528  -0.1933  0.6404  0.8377
   6.350   1.5222   0.00879   0.00526  -0.1919  0.6394  0.8378
   6.360   1.5235   0.00880   0.00527  -0.1920  0.6395  0.8378
   6.370   1.5282   0.00882   0.00529  -0.1928  0.6401  0.8377
   6.380   1.5246   0.00880   0.00528  -0.1918  0.6393  0.8378
   6.390   1.5294   0.00882   0.00530  -0.1926  0.6399  0.8377
   6.400   1.5289   0.00882   0.00530  -0.1923  0.6397  0.8378
   6.410   1.5286   0.00882   0.00530  -0.1921  0.6395  0.8378
   6.420   1.5253   0.00880   0.00527  -0.1912  0.6386  0.8378
   6.430   1.5295   0.00882   0.00530  -0.1919  0.6393  0.8378
   6.440   1.5332   0.00884   0.00532  -0.1925  0.6398  0.8378
   6.450   1.5263   0.00880   0.00527  -0.1908  0.6382  0.8378
   6.460   1.5351   0.00885   0.00533  -0.1925  0.6397  0.8377
   6.470   1.5256   0.00879   0.00526  -0.1902  0.6376  0.8379
   6.480   1.5363   0.00885   0.00534  -0.1923  0.6396  0.8378
   6.490   1.5309   0.00882   0.00530  -0.1909  0.6383  0.8378
   6.500   1.5315   0.00882   0.00530  -0.1909  0.6382  0.8378
   6.510   1.5360   0.00885   0.00533  -0.1916  0.6390  0.8378
   6.520   1.5352   0.00884   0.00533  -0.1912  0.6386  0.8378
   6.530   1.5363   0.00885   0.00533  -0.1913  0.6386  0.8378
   6.540   1.5341   0.00883   0.00531  -0.1906  0.6379  0.8378
   6.550   1.5365   0.00884   0.00533  -0.1909  0.6382  0.8378
   6.560   1.5348   0.00882   0.00531  -0.1903  0.6376  0.8379
   6.570   1.5412   0.00887   0.00536  -0.1915  0.6388  0.8378
   6.580   1.5323   0.00881   0.00528  -0.1894  0.6366  0.8379
   6.590   1.5337   0.00882   0.00529  -0.1895  0.6367  0.8379
   6.600   1.5416   0.00886   0.00535  -0.1910  0.6382  0.8378
   6.610   1.5443   0.00888   0.00538  -0.1914  0.6386  0.8378
   6.620   1.5317   0.00882   0.00528  -0.1885  0.6352  0.8380
   6.630   1.5398   0.00884   0.00533  -0.1900  0.6372  0.8379
   6.640   1.5410   0.00885   0.00533  -0.1900  0.6372  0.8379
   6.650   1.5421   0.00885   0.00534  -0.1901  0.6372  0.8379
   6.660   1.5440   0.00886   0.00535  -0.1903  0.6374  0.8379
   6.670   1.5431   0.00886   0.00535  -0.1899  0.6370  0.8379
   6.680   1.5443   0.00886   0.00535  -0.1899  0.6371  0.8379
   6.690   1.5435   0.00886   0.00534  -0.1896  0.6367  0.8379
   6.700   1.5439   0.00885   0.00534  -0.1894  0.6364  0.8379
   6.710   1.5442   0.00884   0.00530  -0.1893  0.6357  0.8379
   6.720   1.5451   0.00884   0.00531  -0.1893  0.6357  0.8379
   6.730   1.5464   0.00886   0.00534  -0.1894  0.6361  0.8379
   6.740   1.5473   0.00886   0.00534  -0.1894  0.6361  0.8379
   6.750   1.5529   0.00890   0.00540  -0.1904  0.6374  0.8379
   6.760   1.5492   0.00886   0.00532  -0.1893  0.6356  0.8379
   6.770   1.5439   0.00890   0.00539  -0.1881  0.6349  0.8380
   6.780   1.5513   0.00888   0.00536  -0.1894  0.6360  0.8379
   6.790   1.5524   0.00889   0.00537  -0.1894  0.6362  0.8379
   6.800   1.5534   0.00889   0.00538  -0.1894  0.6361  0.8379
   6.810   1.5543   0.00888   0.00535  -0.1894  0.6356  0.8379
   6.820   1.5553   0.00888   0.00535  -0.1894  0.6356  0.8379
   6.830   1.5562   0.00889   0.00536  -0.1894  0.6356  0.8379
   6.840   1.5573   0.00890   0.00540  -0.1895  0.6361  0.8379
   6.850   1.5458   0.00898   0.00549  -0.1869  0.6341  0.8380
   6.860   1.5498   0.00897   0.00547  -0.1875  0.6345  0.8380
   6.870   1.5560   0.00893   0.00542  -0.1886  0.6351  0.8380
   6.880   1.5467   0.00901   0.00553  -0.1865  0.6337  0.8381
   6.890   1.5549   0.00896   0.00546  -0.1880  0.6348  0.8380
   6.900   1.5539   0.00898   0.00549  -0.1876  0.6345  0.8380
   6.910   1.5552   0.00898   0.00549  -0.1877  0.6346  0.8380
   6.920   1.5631   0.00894   0.00543  -0.1891  0.6353  0.8379
   6.930   1.5662   0.00894   0.00544  -0.1896  0.6360  0.8379
   6.940   1.5671   0.00893   0.00542  -0.1895  0.6355  0.8379
   6.950   1.5582   0.00901   0.00552  -0.1875  0.6345  0.8380
   6.960   1.5511   0.00907   0.00560  -0.1859  0.6331  0.8381
   6.970   1.5593   0.00903   0.00554  -0.1874  0.6344  0.8380
   6.980   1.5538   0.00908   0.00561  -0.1861  0.6332  0.8381
   6.990   1.5582   0.00906   0.00559  -0.1868  0.6339  0.8381
   7.000   1.5631   0.00903   0.00555  -0.1876  0.6345  0.8380
   7.010   1.5540   0.00911   0.00565  -0.1855  0.6327  0.8381
   7.020   1.5552   0.00912   0.00565  -0.1856  0.6327  0.8381
   7.030   1.5606   0.00909   0.00562  -0.1865  0.6336  0.8381
   7.040   1.5604   0.00910   0.00564  -0.1863  0.6334  0.8381
   7.050   1.5589   0.00913   0.00567  -0.1858  0.6329  0.8381
   7.060   1.5595   0.00913   0.00568  -0.1857  0.6328  0.8381
   7.070   1.5559   0.00917   0.00572  -0.1848  0.6318  0.8382
   7.080   1.5660   0.00911   0.00565  -0.1866  0.6337  0.8381
   7.090   1.5624   0.00915   0.00570  -0.1857  0.6328  0.8381
   7.100   1.5599   0.00918   0.00573  -0.1850  0.6321  0.8381
   7.110   1.5649   0.00915   0.00570  -0.1858  0.6330  0.8381
   7.120   1.5643   0.00917   0.00572  -0.1855  0.6327  0.8381
   7.130   1.5673   0.00916   0.00571  -0.1859  0.6331  0.8381
   7.140   1.5637   0.00920   0.00575  -0.1850  0.6321  0.8381
   7.150   1.5618   0.00922   0.00578  -0.1845  0.6314  0.8382
   7.160   1.5618   0.00924   0.00579  -0.1843  0.6311  0.8382
   7.170   1.5718   0.00918   0.00573  -0.1861  0.6332  0.8381
   7.180   1.5704   0.00920   0.00576  -0.1856  0.6328  0.8381
   7.190   1.5676   0.00923   0.00579  -0.1849  0.6319  0.8381
   7.200   1.5715   0.00922   0.00578  -0.1855  0.6326  0.8381
   7.210   1.5560   0.00935   0.00589  -0.1822  0.6281  0.8383
   7.220   1.5720   0.00924   0.00580  -0.1852  0.6323  0.8381
   7.230   1.5685   0.00927   0.00584  -0.1843  0.6312  0.8382
   7.240   1.5640   0.00932   0.00587  -0.1832  0.6297  0.8382
   7.250   1.5671   0.00931   0.00587  -0.1837  0.6303  0.8382
   7.260   1.5650   0.00933   0.00589  -0.1831  0.6295  0.8382
   7.270   1.5691   0.00932   0.00589  -0.1837  0.6304  0.8382
   7.280   1.5723   0.00931   0.00588  -0.1841  0.6310  0.8382
   7.290   1.5678   0.00935   0.00591  -0.1831  0.6295  0.8382
   7.300   1.5721   0.00933   0.00591  -0.1837  0.6305  0.8382
   7.310   1.5725   0.00934   0.00592  -0.1836  0.6303  0.8382
   7.320   1.5694   0.00938   0.00594  -0.1828  0.6291  0.8382
   7.330   1.5629   0.00948   0.00605  -0.1814  0.6268  0.8383
   7.340   1.5725   0.00938   0.00595  -0.1831  0.6295  0.8382
   7.350   1.5738   0.00938   0.00596  -0.1831  0.6297  0.8382
   7.360   1.5802   0.00935   0.00593  -0.1842  0.6311  0.8382
   7.370   1.5701   0.00945   0.00601  -0.1820  0.6280  0.8383
   7.380   1.5733   0.00943   0.00598  -0.1825  0.6286  0.8383
   7.390   1.5697   0.00950   0.00607  -0.1816  0.6274  0.8383
   7.400   1.5732   0.00946   0.00603  -0.1821  0.6281  0.8383
   7.410   1.5798   0.00942   0.00600  -0.1832  0.6299  0.8382
   7.420   1.5680   0.00959   0.00617  -0.1807  0.6258  0.8383
   7.430   1.5761   0.00948   0.00605  -0.1821  0.6281  0.8383
   7.440   1.5764   0.00950   0.00606  -0.1820  0.6280  0.8383
   7.450   1.5793   0.00947   0.00604  -0.1824  0.6284  0.8383
   7.460   1.5692   0.00965   0.00624  -0.1803  0.6248  0.8384
   7.470   1.5759   0.00957   0.00615  -0.1814  0.6271  0.8383
   7.480   1.5803   0.00952   0.00609  -0.1820  0.6280  0.8383
   7.490   1.5824   0.00950   0.00608  -0.1823  0.6283  0.8383
   7.500   1.5742   0.00965   0.00625  -0.1805  0.6255  0.8383
   7.510   1.5746   0.00967   0.00627  -0.1804  0.6253  0.8384
   7.520   1.5849   0.00953   0.00610  -0.1822  0.6283  0.8383
   7.530   1.5709   0.00977   0.00636  -0.1793  0.6230  0.8384
   7.540   1.5817   0.00962   0.00622  -0.1812  0.6270  0.8383
   7.550   1.5845   0.00960   0.00619  -0.1816  0.6276  0.8383
   7.560   1.5792   0.00970   0.00631  -0.1804  0.6255  0.8384
   7.570   1.5727   0.00983   0.00642  -0.1790  0.6225  0.8384
   7.580   1.5857   0.00964   0.00624  -0.1813  0.6272  0.8383
   7.590   1.5770   0.00980   0.00641  -0.1795  0.6234  0.8384
   7.600   1.5801   0.00977   0.00639  -0.1799  0.6244  0.8384
   7.610   1.5762   0.00986   0.00646  -0.1790  0.6226  0.8384
   7.620   1.5821   0.00978   0.00640  -0.1799  0.6245  0.8384
   7.630   1.5767   0.00989   0.00650  -0.1787  0.6222  0.8384
   7.640   1.5864   0.00976   0.00638  -0.1804  0.6256  0.8384
   7.650   1.5856   0.00979   0.00641  -0.1800  0.6249  0.8384
   7.660   1.5881   0.00977   0.00639  -0.1803  0.6257  0.8384
   7.670   1.5827   0.00988   0.00650  -0.1791  0.6231  0.8384
   7.680   1.5845   0.00987   0.00649  -0.1793  0.6234  0.8384
   7.690   1.5769   0.01004   0.00665  -0.1777  0.6198  0.8385
