  
       XFOIL         Version 6.94
  
 Calculated polar for: 1080                                            
  
 1 1 Reynolds number fixed          Mach number fixed         
  
 xtrf =   1.000 (top)        1.000 (bottom)  
 Mach =   0.000     Re =     2.000 e 6     Ncrit =   9.000
  
  alpha     CL        CD       CDp       CM    Top_Xtr Bot_Xtr
 ------- -------- --------- --------- -------- ------- -------
   6.000   1.5631   0.00881   0.00437  -0.1596  0.4266  0.7940
   6.010   1.5642   0.00881   0.00437  -0.1596  0.4267  0.7942
   6.020   1.5649   0.00883   0.00439  -0.1595  0.4258  0.7942
   6.030   1.5658   0.00884   0.00440  -0.1595  0.4255  0.7945
   6.040   1.5667   0.00886   0.00441  -0.1594  0.4252  0.7948
   6.050   1.5680   0.00885   0.00441  -0.1595  0.4255  0.7949
   6.060   1.5692   0.00885   0.00441  -0.1595  0.4258  0.7952
   6.070   1.5699   0.00887   0.00442  -0.1595  0.4252  0.7953
   6.080   1.5706   0.00889   0.00444  -0.1594  0.4246  0.7956
   6.090   1.5716   0.00889   0.00444  -0.1594  0.4245  0.7957
   6.100   1.5722   0.00892   0.00446  -0.1593  0.4239  0.7958
   6.110   1.5734   0.00892   0.00446  -0.1594  0.4241  0.7961
   6.120   1.5742   0.00893   0.00447  -0.1593  0.4237  0.7964
   6.130   1.5752   0.00894   0.00448  -0.1593  0.4234  0.7965
   6.160   1.5785   0.00895   0.00449  -0.1593  0.4236  0.7971
   6.170   1.5795   0.00895   0.00450  -0.1593  0.4233  0.7973
   6.180   1.5806   0.00896   0.00451  -0.1593  0.4229  0.7975
   6.190   1.5817   0.00896   0.00451  -0.1594  0.4231  0.7975
   6.200   1.5825   0.00898   0.00452  -0.1593  0.4218  0.7978
   6.210   1.5837   0.00897   0.00452  -0.1594  0.4227  0.7979
   6.220   1.5846   0.00899   0.00453  -0.1593  0.4217  0.7980
   6.230   1.5856   0.00900   0.00454  -0.1593  0.4214  0.7983
   6.240   1.5866   0.00900   0.00454  -0.1593  0.4212  0.7985
   6.250   1.5879   0.00900   0.00454  -0.1594  0.4220  0.7986
   6.260   1.5888   0.00901   0.00455  -0.1593  0.4213  0.7987
   6.270   1.5896   0.00902   0.00456  -0.1593  0.4204  0.7989
   6.280   1.5908   0.00902   0.00456  -0.1593  0.4207  0.7991
   6.310   1.5934   0.00906   0.00460  -0.1592  0.4191  0.7995
   6.320   1.5945   0.00906   0.00460  -0.1593  0.4192  0.7996
   6.330   1.5957   0.00906   0.00460  -0.1593  0.4195  0.7998
   6.340   1.5968   0.00906   0.00461  -0.1593  0.4195  0.8000
   6.350   1.5976   0.00908   0.00462  -0.1593  0.4190  0.8001
   6.360   1.5988   0.00908   0.00462  -0.1593  0.4191  0.8001
   6.370   1.5998   0.00908   0.00463  -0.1593  0.4190  0.8005
   6.380   1.6001   0.00912   0.00465  -0.1592  0.4175  0.8006
   6.390   1.6013   0.00911   0.00465  -0.1592  0.4178  0.8007
   6.400   1.6023   0.00912   0.00466  -0.1592  0.4176  0.8010
   6.410   1.6028   0.00914   0.00468  -0.1591  0.4168  0.8011
   6.420   1.6037   0.00916   0.00469  -0.1591  0.4165  0.8011
   6.430   1.6044   0.00918   0.00470  -0.1590  0.4160  0.8013
   6.440   1.6061   0.00915   0.00469  -0.1591  0.4169  0.8016
   6.450   1.6069   0.00917   0.00470  -0.1591  0.4165  0.8016
   6.460   1.6076   0.00919   0.00472  -0.1590  0.4160  0.8018
   6.470   1.6086   0.00919   0.00472  -0.1590  0.4160  0.8020
   6.480   1.6089   0.00922   0.00475  -0.1589  0.4150  0.8022
   6.490   1.6108   0.00920   0.00473  -0.1590  0.4160  0.8022
   6.500   1.6107   0.00925   0.00477  -0.1588  0.4138  0.8025
   6.510   1.6119   0.00925   0.00477  -0.1589  0.4143  0.8027
   6.520   1.6128   0.00925   0.00478  -0.1589  0.4138  0.8028
   6.530   1.6141   0.00925   0.00478  -0.1589  0.4148  0.8029
   6.540   1.6122   0.00937   0.00486  -0.1584  0.4079  0.8030
   6.550   1.6160   0.00926   0.00479  -0.1589  0.4140  0.8032
   6.560   1.6156   0.00933   0.00484  -0.1586  0.4100  0.8034
   6.570   1.6165   0.00934   0.00485  -0.1586  0.4097  0.8036
   6.580   1.6145   0.00946   0.00493  -0.1581  0.4045  0.8038
   6.590   1.6195   0.00931   0.00484  -0.1588  0.4116  0.8040
   6.600   1.6210   0.00930   0.00483  -0.1588  0.4127  0.8040
   6.610   1.6197   0.00939   0.00489  -0.1584  0.4081  0.8042
   6.620   1.6190   0.00947   0.00495  -0.1581  0.4055  0.8043
   6.630   1.6218   0.00940   0.00491  -0.1584  0.4079  0.8045
   6.640   1.6231   0.00940   0.00491  -0.1585  0.4083  0.8046
   6.650   1.6223   0.00947   0.00496  -0.1582  0.4061  0.8048
   6.660   1.6217   0.00954   0.00501  -0.1579  0.4017  0.8049
   6.670   1.6235   0.00951   0.00499  -0.1580  0.4035  0.8052
   6.680   1.6252   0.00949   0.00498  -0.1581  0.4052  0.8054
   6.690   1.6209   0.00971   0.00513  -0.1572  0.3952  0.8054
   6.700   1.6201   0.00978   0.00518  -0.1569  0.3918  0.8057
   6.710   1.6275   0.00954   0.00502  -0.1580  0.4030  0.8059
   6.720   1.6262   0.00963   0.00509  -0.1576  0.3990  0.8060
   6.730   1.6284   0.00959   0.00506  -0.1578  0.4007  0.8061
   6.740   1.6251   0.00976   0.00518  -0.1570  0.3933  0.8062
   6.750   1.6275   0.00972   0.00515  -0.1573  0.3963  0.8064
   6.760   1.6223   0.00995   0.00532  -0.1562  0.3856  0.8065
   6.770   1.6238   0.00994   0.00531  -0.1563  0.3865  0.8067
   6.780   1.6298   0.00976   0.00519  -0.1571  0.3943  0.8069
   6.790   1.6315   0.00974   0.00517  -0.1573  0.3960  0.8071
   6.800   1.6306   0.00982   0.00523  -0.1569  0.3920  0.8071
   6.810   1.6256   0.01004   0.00539  -0.1559  0.3826  0.8074
   6.820   1.6271   0.01003   0.00538  -0.1560  0.3833  0.8075
   6.830   1.6301   0.00996   0.00534  -0.1563  0.3869  0.8075
   6.840   1.6259   0.01015   0.00548  -0.1554  0.3794  0.8079
   6.850   1.6271   0.01015   0.00548  -0.1554  0.3797  0.8080
   6.860   1.6318   0.01002   0.00539  -0.1561  0.3844  0.8081
   6.870   1.6281   0.01020   0.00552  -0.1552  0.3778  0.8083
   6.880   1.6300   0.01017   0.00550  -0.1554  0.3796  0.8084
   6.890   1.6268   0.01033   0.00562  -0.1546  0.3730  0.8087
   6.900   1.6316   0.01020   0.00552  -0.1553  0.3787  0.8088
   6.910   1.6357   0.01009   0.00545  -0.1558  0.3825  0.8088
   6.920   1.6344   0.01018   0.00552  -0.1554  0.3800  0.8090
   6.930   1.6397   0.01003   0.00541  -0.1562  0.3857  0.8092
   6.940   1.6370   0.01017   0.00551  -0.1555  0.3806  0.8094
   6.950   1.6332   0.01034   0.00564  -0.1547  0.3734  0.8095
   6.960   1.6327   0.01040   0.00568  -0.1544  0.3719  0.8096
   6.970   1.6353   0.01035   0.00565  -0.1547  0.3735  0.8098
   6.980   1.6395   0.01024   0.00557  -0.1552  0.3783  0.8099
   6.990   1.6314   0.01055   0.00580  -0.1536  0.3661  0.8100
   7.000   1.6321   0.01056   0.00581  -0.1536  0.3658  0.8101
   7.010   1.6357   0.01049   0.00576  -0.1540  0.3693  0.8103
   7.050   1.6385   0.01054   0.00581  -0.1538  0.3678  0.8109
   7.060   1.6392   0.01055   0.00582  -0.1537  0.3675  0.8110
   7.070   1.6337   0.01073   0.00596  -0.1526  0.3614  0.8111
   7.080   1.6388   0.01062   0.00588  -0.1533  0.3650  0.8114
   7.090   1.6425   0.01055   0.00583  -0.1538  0.3680  0.8116
   7.100   1.6400   0.01065   0.00591  -0.1531  0.3644  0.8117
   7.110   1.6390   0.01070   0.00595  -0.1528  0.3629  0.8119
   7.120   1.6382   0.01075   0.00599  -0.1524  0.3613  0.8119
   7.130   1.6426   0.01067   0.00593  -0.1531  0.3643  0.8122
   7.140   1.6377   0.01082   0.00604  -0.1520  0.3588  0.8123
   7.150   1.6353   0.01091   0.00611  -0.1514  0.3557  0.8125
   7.160   1.6382   0.01086   0.00608  -0.1517  0.3574  0.8126
   7.170   1.6433   0.01076   0.00601  -0.1524  0.3622  0.8128
   7.180   1.6423   0.01081   0.00605  -0.1521  0.3599  0.8129
   7.190   1.6332   0.01108   0.00626  -0.1502  0.3508  0.8133
   7.200   1.6402   0.01092   0.00614  -0.1513  0.3561  0.8132
   7.210   1.6348   0.01109   0.00627  -0.1501  0.3506  0.8135
   7.220   1.6448   0.01086   0.00609  -0.1518  0.3587  0.8137
   7.230   1.6371   0.01109   0.00628  -0.1502  0.3511  0.8139
   7.240   1.6363   0.01114   0.00632  -0.1499  0.3495  0.8140
   7.250   1.6247   0.01148   0.00659  -0.1476  0.3390  0.8141
   7.260   1.6455   0.01095   0.00618  -0.1511  0.3560  0.8143
   7.270   1.6401   0.01113   0.00632  -0.1500  0.3505  0.8144
   7.290   1.6394   0.01120   0.00638  -0.1495  0.3483  0.8148
   7.300   1.6425   0.01115   0.00634  -0.1499  0.3503  0.8149
   7.310   1.6358   0.01136   0.00651  -0.1485  0.3445  0.8152
   7.320   1.6400   0.01128   0.00645  -0.1490  0.3467  0.8153
   7.330   1.6395   0.01132   0.00648  -0.1488  0.3458  0.8155
   7.340   1.6405   0.01132   0.00649  -0.1488  0.3459  0.8156
   7.350   1.6533   0.01101   0.00625  -0.1509  0.3559  0.8158
   7.360   1.6388   0.01143   0.00658  -0.1481  0.3433  0.8161
   7.370   1.6242   0.01186   0.00693  -0.1454  0.3304  0.8163
   7.380   1.6419   0.01140   0.00656  -0.1483  0.3447  0.8164
   7.390   1.6320   0.01170   0.00681  -0.1463  0.3360  0.8166
   7.400   1.6338   0.01168   0.00679  -0.1465  0.3366  0.8169
   7.410   1.6432   0.01146   0.00661  -0.1480  0.3433  0.8170
   7.420   1.6417   0.01153   0.00667  -0.1475  0.3411  0.8171
   7.430   1.6391   0.01163   0.00676  -0.1469  0.3383  0.8174
   7.440   1.6340   0.01180   0.00690  -0.1458  0.3338  0.8176
   7.450   1.6376   0.01173   0.00684  -0.1463  0.3363  0.8177
   7.460   1.6369   0.01178   0.00689  -0.1459  0.3349  0.8179
   7.470   1.6415   0.01168   0.00681  -0.1466  0.3376  0.8180
   7.480   1.6327   0.01196   0.00704  -0.1449  0.3298  0.8183
   7.490   1.6368   0.01188   0.00697  -0.1454  0.3325  0.8184
   7.500   1.6548   0.01141   0.00660  -0.1484  0.3463  0.8186
   7.510   1.6366   0.01195   0.00703  -0.1450  0.3309  0.8188
   7.520   1.6471   0.01168   0.00682  -0.1467  0.3385  0.8191
   7.530   1.6338   0.01209   0.00715  -0.1442  0.3280  0.8190
   7.540   1.6444   0.01182   0.00694  -0.1458  0.3358  0.8195
   7.550   1.6378   0.01204   0.00712  -0.1445  0.3293  0.8196
   7.560   1.6345   0.01216   0.00722  -0.1438  0.3269  0.8198
   7.570   1.6372   0.01211   0.00719  -0.1441  0.3281  0.8200
   7.580   1.6389   0.01210   0.00718  -0.1442  0.3285  0.8201
   7.590   1.6213   0.01263   0.00762  -0.1410  0.3152  0.8204
   7.600   1.6376   0.01220   0.00726  -0.1436  0.3267  0.8204
   7.610   1.6422   0.01210   0.00718  -0.1442  0.3291  0.8207
   7.620   1.6355   0.01232   0.00737  -0.1429  0.3236  0.8209
   7.630   1.6331   0.01242   0.00745  -0.1423  0.3212  0.8211
   7.640   1.6380   0.01231   0.00736  -0.1430  0.3243  0.8212
   7.670   1.6390   0.01237   0.00743  -0.1426  0.3231  0.8219
   7.680   1.6411   0.01235   0.00741  -0.1428  0.3242  0.8221
   7.690   1.6391   0.01243   0.00748  -0.1423  0.3220  0.8222
   7.700   1.6364   0.01254   0.00758  -0.1417  0.3199  0.8223
   7.710   1.6463   0.01229   0.00737  -0.1432  0.3267  0.8227
   7.720   1.6369   0.01259   0.00763  -0.1414  0.3193  0.8229
   7.730   1.6336   0.01272   0.00774  -0.1407  0.3163  0.8230
   7.740   1.6327   0.01277   0.00779  -0.1404  0.3150  0.8231
   7.750   1.6314   0.01284   0.00785  -0.1400  0.3136  0.8234
   7.760   1.6314   0.01288   0.00788  -0.1398  0.3130  0.8237
   7.770   1.6450   0.01251   0.00758  -0.1419  0.3217  0.8240
   7.780   1.6387   0.01273   0.00776  -0.1407  0.3174  0.8242
   7.790   1.6344   0.01288   0.00790  -0.1398  0.3135  0.8243
   7.800   1.6346   0.01291   0.00793  -0.1397  0.3132  0.8246
   7.810   1.6333   0.01298   0.00799  -0.1393  0.3120  0.8245
   7.820   1.6378   0.01288   0.00791  -0.1399  0.3143  0.8249
   7.830   1.6405   0.01283   0.00787  -0.1402  0.3158  0.8252
   7.840   1.6335   0.01307   0.00808  -0.1388  0.3110  0.8254
   7.850   1.6305   0.01319   0.00819  -0.1382  0.3086  0.8257
   7.860   1.6291   0.01327   0.00826  -0.1378  0.3071  0.8259
   7.870   1.6314   0.01323   0.00823  -0.1380  0.3083  0.8261
   7.880   1.6269   0.01340   0.00838  -0.1371  0.3047  0.8263
   7.890   1.6406   0.01302   0.00805  -0.1392  0.3127  0.8265
   7.900   1.6397   0.01308   0.00811  -0.1389  0.3118  0.8268
   7.910   1.6361   0.01322   0.00823  -0.1381  0.3096  0.8270
   7.920   1.6328   0.01335   0.00835  -0.1374  0.3067  0.8273
   7.930   1.6242   0.01365   0.00862  -0.1359  0.3017  0.8274
   7.940   1.6400   0.01320   0.00822  -0.1383  0.3106  0.8276
   7.950   1.6354   0.01338   0.00838  -0.1374  0.3070  0.8279
   7.960   1.6278   0.01364   0.00862  -0.1360  0.3023  0.8280
   7.970   1.6308   0.01358   0.00857  -0.1363  0.3034  0.8284
   7.980   1.6312   0.01361   0.00859  -0.1362  0.3032  0.8284
   7.990   1.6399   0.01337   0.00839  -0.1374  0.3082  0.8287
   8.000   1.6369   0.01350   0.00850  -0.1368  0.3057  0.8290
   8.010   1.6348   0.01360   0.00859  -0.1363  0.3040  0.8292
   8.020   1.6222   0.01403   0.00898  -0.1342  0.2967  0.8293
   8.030   1.6269   0.01391   0.00888  -0.1348  0.2992  0.8297
   8.040   1.6210   0.01414   0.00909  -0.1337  0.2953  0.8299
   8.050   1.6263   0.01401   0.00897  -0.1344  0.2979  0.8301
   8.060   1.6226   0.01416   0.00911  -0.1336  0.2955  0.8302
   8.070   1.6188   0.01432   0.00926  -0.1329  0.2937  0.8306
   8.080   1.6301   0.01399   0.00896  -0.1345  0.2991  0.8305
   8.090   1.6327   0.01394   0.00892  -0.1347  0.3004  0.8310
   8.100   1.6391   0.01378   0.00877  -0.1356  0.3031  0.8311
   8.110   1.6311   0.01407   0.00904  -0.1342  0.2985  0.8313
   8.120   1.6210   0.01443   0.00938  -0.1325  0.2934  0.8317
   8.130   1.6260   0.01431   0.00926  -0.1331  0.2951  0.8316
   8.140   1.6319   0.01415   0.00912  -0.1339  0.2978  0.8317
   8.180   1.6315   0.01431   0.00928  -0.1332  0.2962  0.8328
   8.190   1.6329   0.01430   0.00927  -0.1333  0.2966  0.8327
   8.200   1.6344   0.01428   0.00926  -0.1333  0.2971  0.8329
   8.210   1.6288   0.01451   0.00948  -0.1324  0.2943  0.8333
   8.220   1.6196   0.01486   0.00981  -0.1309  0.2897  0.8335
   8.230   1.6199   0.01489   0.00984  -0.1308  0.2895  0.8339
   8.240   1.6325   0.01449   0.00947  -0.1325  0.2950  0.8339
   8.250   1.6145   0.01517   0.01011  -0.1298  0.2866  0.8344
   8.260   1.6245   0.01485   0.00981  -0.1310  0.2911  0.8344
   8.270   1.6074   0.01552   0.01045  -0.1286  0.2839  0.8348
   8.280   1.6068   0.01559   0.01052  -0.1283  0.2834  0.8351
   8.290   1.6197   0.01514   0.01009  -0.1300  0.2879  0.8351
   8.300   1.6143   0.01538   0.01033  -0.1291  0.2857  0.8351
   8.310   1.6131   0.01547   0.01042  -0.1288  0.2852  0.8357
   8.320   1.6159   0.01541   0.01036  -0.1290  0.2860  0.8359
   8.330   1.6057   0.01586   0.01080  -0.1276  0.2819  0.8362
   8.340   1.6094   0.01575   0.01070  -0.1279  0.2834  0.8364
   8.350   1.6120   0.01569   0.01064  -0.1281  0.2844  0.8364
   8.360   1.6096   0.01584   0.01079  -0.1277  0.2831  0.8369
   8.370   1.6045   0.01610   0.01104  -0.1270  0.2807  0.8372
   8.380   1.6215   0.01545   0.01042  -0.1290  0.2869  0.8371
   8.390   1.6242   0.01539   0.01036  -0.1292  0.2878  0.8373
   8.400   1.5989   0.01650   0.01145  -0.1260  0.2783  0.8380
   8.410   1.5993   0.01653   0.01148  -0.1259  0.2784  0.8382
   8.420   1.6017   0.01648   0.01143  -0.1261  0.2791  0.8385
   8.430   1.5954   0.01684   0.01178  -0.1252  0.2772  0.8389
   8.440   1.6161   0.01594   0.01091  -0.1276  0.2846  0.8386
   8.450   1.6011   0.01667   0.01162  -0.1257  0.2786  0.8392
   8.460   1.6041   0.01658   0.01154  -0.1259  0.2794  0.8389
   8.470   1.5886   0.01744   0.01239  -0.1242  0.2752  0.8397
   8.480   1.5820   0.01791   0.01286  -0.1235  0.2727  0.8402
   8.490   1.6002   0.01693   0.01190  -0.1252  0.2781  0.8398
   8.500   1.5987   0.01707   0.01204  -0.1249  0.2776  0.8402
   8.510   1.6145   0.01635   0.01133  -0.1266  0.2829  0.8400
   8.520   1.5982   0.01722   0.01219  -0.1247  0.2774  0.8407
   8.530   1.6002   0.01717   0.01214  -0.1248  0.2778  0.8411
